<?xml version="1.0" encoding="UTF-8"?>
<network version="1.0">
<edges>
  <edge id="0" from="1.0" to="2.0" length="4826.97" />
  <edge id="1" from="1.0" to="3.0" length="4443.95" />
  <edge id="2" from="2.0" to="1.0" length="4826.97" />
  <edge id="3" from="2.0" to="6.0" length="2027.05" />
  <edge id="4" from="3.0" to="1.0" length="4443.95" />
  <edge id="5" from="3.0" to="4.0" length="2417.34" />
  <edge id="6" from="3.0" to="12.0" length="3260.98" />
  <edge id="7" from="4.0" to="3.0" length="2417.34" />
  <edge id="8" from="4.0" to="5.0" length="1256.57" />
  <edge id="9" from="4.0" to="11.0" length="2171.01" />
  <edge id="10" from="5.0" to="4.0" length="1256.57" />
  <edge id="11" from="5.0" to="6.0" length="3071.09" />
  <edge id="12" from="5.0" to="9.0" length="1716.74" />
  <edge id="13" from="6.0" to="2.0" length="2027.05" />
  <edge id="14" from="6.0" to="5.0" length="3071.09" />
  <edge id="15" from="6.0" to="8.0" length="2809.06" />
  <edge id="16" from="7.0" to="8.0" length="1455.66" />
  <edge id="17" from="7.0" to="18.0" length="1902.16" />
  <edge id="18" from="8.0" to="6.0" length="2809.06" />
  <edge id="19" from="8.0" to="7.0" length="1455.66" />
  <edge id="20" from="8.0" to="9.0" length="2210.49" />
  <edge id="21" from="8.0" to="16.0" length="1732.44" />
  <edge id="22" from="9.0" to="5.0" length="1716.74" />
  <edge id="23" from="9.0" to="8.0" length="2210.49" />
  <edge id="24" from="9.0" to="10.0" length="370.11" />
  <edge id="25" from="10.0" to="9.0" length="370.11" />
  <edge id="26" from="10.0" to="11.0" length="1246.49" />
  <edge id="27" from="10.0" to="15.0" length="1764.64" />
  <edge id="28" from="10.0" to="16.0" length="1622.96" />
  <edge id="29" from="10.0" to="17.0" length="1674.54" />
  <edge id="30" from="11.0" to="4.0" length="2171.01" />
  <edge id="31" from="11.0" to="10.0" length="1246.49" />
  <edge id="32" from="11.0" to="12.0" length="2680.65" />
  <edge id="33" from="11.0" to="14.0" length="1682.65" />
  <edge id="34" from="12.0" to="3.0" length="3260.98" />
  <edge id="35" from="12.0" to="11.0" length="2680.65" />
  <edge id="36" from="12.0" to="13.0" length="6014.49" />
  <edge id="37" from="13.0" to="12.0" length="6014.49" />
  <edge id="38" from="13.0" to="24.0" length="3816.72" />
  <edge id="39" from="14.0" to="11.0" length="1682.65" />
  <edge id="40" from="14.0" to="15.0" length="1572.49" />
  <edge id="41" from="14.0" to="23.0" length="1606.57" />
  <edge id="42" from="15.0" to="10.0" length="1764.64" />
  <edge id="43" from="15.0" to="14.0" length="1572.49" />
  <edge id="44" from="15.0" to="19.0" length="1625.36" />
  <edge id="45" from="15.0" to="22.0" length="1617.24" />
  <edge id="46" from="16.0" to="8.0" length="1732.44" />
  <edge id="47" from="16.0" to="10.0" length="1622.96" />
  <edge id="48" from="16.0" to="17.0" length="607.52" />
  <edge id="49" from="16.0" to="18.0" length="1393.05" />
  <edge id="50" from="17.0" to="10.0" length="1674.54" />
  <edge id="51" from="17.0" to="16.0" length="607.52" />
  <edge id="52" from="17.0" to="19.0" length="1299.75" />
  <edge id="53" from="18.0" to="7.0" length="1902.16" />
  <edge id="54" from="18.0" to="16.0" length="1393.05" />
  <edge id="55" from="18.0" to="20.0" length="3754.37" />
  <edge id="56" from="19.0" to="15.0" length="1625.36" />
  <edge id="57" from="19.0" to="17.0" length="1299.75" />
  <edge id="58" from="19.0" to="20.0" length="1585.42" />
  <edge id="59" from="20.0" to="18.0" length="3754.37" />
  <edge id="60" from="20.0" to="19.0" length="1585.42" />
  <edge id="61" from="20.0" to="21.0" length="1682.29" />
  <edge id="62" from="20.0" to="22.0" length="1615.54" />
  <edge id="63" from="21.0" to="20.0" length="1682.29" />
  <edge id="64" from="21.0" to="22.0" length="486.72" />
  <edge id="65" from="21.0" to="24.0" length="1677.66" />
  <edge id="66" from="22.0" to="15.0" length="1617.24" />
  <edge id="67" from="22.0" to="20.0" length="1615.54" />
  <edge id="68" from="22.0" to="21.0" length="486.72" />
  <edge id="69" from="22.0" to="23.0" length="1583.01" />
  <edge id="70" from="23.0" to="14.0" length="1606.57" />
  <edge id="71" from="23.0" to="22.0" length="1583.01" />
  <edge id="72" from="23.0" to="24.0" length="1307.53" />
  <edge id="73" from="24.0" to="13.0" length="3816.72" />
  <edge id="74" from="24.0" to="21.0" length="1677.66" />
  <edge id="75" from="24.0" to="23.0" length="1307.53" />
</edges>
</network>
