<?xml version="1.0" encoding="UTF-8"?>
<network version="1.0">
<nodes>
  <node id="1.0" x="0.00" y="0.00" />
  <node id="2.0" x="4763.53" y="-780.03" />
  <node id="3.0" x="-312.66" y="-4432.93" />
  <node id="4.0" x="1871.89" y="-5467.93" />
  <node id="5.0" x="3127.75" y="-5425.68" />
  <node id="6.0" x="4731.87" y="-2806.83" />
  <node id="7.0" x="6198.80" y="-5446.81" />
  <node id="8.0" x="4752.98" y="-5615.80" />
  <node id="9.0" x="3154.14" y="-7142.23" />
  <node id="10.0" x="3138.30" y="-7512.00" />
  <node id="11.0" x="1898.28" y="-7638.78" />
  <node id="12.0" x="-782.29" y="-7659.91" />
  <node id="13.0" x="-1848.19" y="-13579.21" />
  <node id="14.0" x="1560.57" y="-9287.20" />
  <node id="15.0" x="3133.03" y="-9276.63" />
  <node id="16.0" x="4752.98" y="-7348.24" />
  <node id="17.0" x="4752.98" y="-7955.76" />
  <node id="18.0" x="6146.03" y="-7348.24" />
  <node id="19.0" x="4758.26" y="-9255.50" />
  <node id="20.0" x="4768.81" y="-10840.88" />
  <node id="21.0" x="3175.24" y="-11380.00" />
  <node id="22.0" x="3154.14" y="-10893.74" />
  <node id="23.0" x="1571.12" y="-10893.74" />
  <node id="24.0" x="1708.32" y="-12194.05" />
</nodes>
</network>
