<?xml version="1.0" encoding="UTF-8"?>
<network version="1.0">
<nodes>
  <node id="1" x="0.00" y="0.00" />
  <node id="2" x="5999.26" y="-2333.20" />
  <node id="3" x="4532.90" y="-12385.29" />
  <node id="4" x="1163.23" y="-11475.61" />
  <node id="5" x="-12078.18" y="-10736.53" />
  <node id="6" x="-11786.28" y="-1682.28" />
  <node id="7" x="-11647.16" y="-23.54" />
  <node id="8" x="-10895.18" y="-155.78" />
  <node id="9" x="-8135.88" y="-123.29" />
  <node id="10" x="-4870.59" y="-95.72" />
  <node id="11" x="-858.23" y="-519.81" />
  <node id="12" x="1667.32" y="556.95" />
  <node id="13" x="3066.61" y="-1930.49" />
  <node id="14" x="6224.83" y="-6727.20" />
  <node id="15" x="5710.84" y="-9272.76" />
  <node id="16" x="2612.53" y="-12356.86" />
  <node id="17" x="-435.57" y="-11600.25" />
  <node id="18" x="-4492.65" y="-13198.31" />
  <node id="19" x="-7705.53" y="-13242.18" />
  <node id="20" x="-10098.30" y="-13241.39" />
  <node id="21" x="-12084.08" y="-8419.48" />
  <node id="22" x="-12056.76" y="-5175.09" />
  <node id="23" x="-12027.16" y="-2744.55" />
  <node id="24" x="3508.67" y="-8092.95" />
  <node id="25" x="3640.14" y="-5064.52" />
  <node id="26" x="2838.55" y="-1154.23" />
  <node id="27" x="-239.65" y="-6647.54" />
  <node id="28" x="-141.01" y="-4697.22" />
  <node id="29" x="-2471.38" y="-554.02" />
  <node id="30" x="-4799.81" y="-9982.35" />
  <node id="31" x="-3648.55" y="-6794.51" />
  <node id="32" x="-4501.72" y="-3578.50" />
  <node id="33" x="-4881.41" y="-720.12" />
  <node id="34" x="-8041.12" y="-10006.11" />
  <node id="35" x="-8068.92" y="-5149.29" />
  <node id="36" x="-8117.33" y="-713.64" />
  <node id="37" x="-9601.25" y="-10012.59" />
  <node id="38" x="-9671.19" y="-3533.23" />
  <node id="39" x="2501.91" y="-8105.94" />
  <node id="40" x="2518.46" y="-5106.64" />
  <node id="41" x="1875.57" y="-1458.76" />
  <node id="42" x="-840.17" y="-6737.08" />
  <node id="43" x="-847.66" y="-4774.24" />
  <node id="44" x="-2463.16" y="-1286.63" />
  <node id="45" x="-4010.78" y="-9956.44" />
  <node id="46" x="-3243.27" y="-6824.75" />
  <node id="47" x="-3835.53" y="-3391.63" />
  <node id="48" x="-4886.79" y="-1293.54" />
  <node id="49" x="-8046.50" y="-9196.19" />
  <node id="50" x="-8076.09" y="-4315.62" />
  <node id="51" x="-8117.33" y="-1332.41" />
  <node id="52" x="-10402.84" y="-10032.03" />
  <node id="53" x="-10644.93" y="-3539.71" />
  <node id="54" x="292.77" y="-10048.45" />
  <node id="55" x="-141.89" y="-9836.80" />
  <node id="56" x="27.83" y="-9680.96" />
  <node id="57" x="143.29" y="-10279.69" />
  <node id="58" x="662.06" y="-10595.76" />
  <node id="59" x="85.24" y="-10107.36" />
  <node id="60" x="219.99" y="-9951.61" />
  <node id="61" x="-296.55" y="-10155.80" />
  <node id="62" x="5519.84" y="-2737.95" />
  <node id="63" x="5135.59" y="-2955.90" />
  <node id="64" x="4472.40" y="-3347.36" />
  <node id="65" x="4315.67" y="-3516.82" />
  <node id="66" x="4161.57" y="-3825.77" />
  <node id="67" x="4204.76" y="-4386.75" />
  <node id="68" x="4471.33" y="-6312.20" />
  <node id="69" x="4472.37" y="-7133.87" />
  <node id="70" x="4562.66" y="-8831.48" />
  <node id="71" x="4554.97" y="-9519.77" />
  <node id="72" x="4550.17" y="-10021.82" />
  <node id="73" x="4562.66" y="-10919.50" />
  <node id="74" x="4574.22" y="-11449.03" />
  <node id="75" x="4503.87" y="-11454.22" />
  <node id="76" x="4522.32" y="-10902.15" />
  <node id="77" x="4515.59" y="-9990.59" />
  <node id="78" x="4517.52" y="-9533.65" />
  <node id="79" x="4525.20" y="-8832.63" />
  <node id="80" x="4444.04" y="-7120.57" />
  <node id="81" x="4422.51" y="-6391.74" />
  <node id="82" x="4258.35" y="-4598.94" />
  <node id="83" x="4230.01" y="-3599.27" />
  <node id="84" x="4417.79" y="-3365.79" />
  <node id="85" x="4544.57" y="-3232.38" />
  <node id="86" x="5278.38" y="-2831.35" />
  <node id="87" x="5514.30" y="-2724.12" />
  <node id="88" x="149.77" y="-537.10" />
  <node id="89" x="225.74" y="-839.57" />
  <node id="90" x="372.39" y="-1385.21" />
  <node id="91" x="406.04" y="-1545.76" />
  <node id="92" x="442.17" y="-1748.81" />
  <node id="93" x="390.51" y="-2887.13" />
  <node id="94" x="393.97" y="-3274.48" />
  <node id="95" x="385.46" y="-4071.30" />
  <node id="96" x="394.68" y="-5516.75" />
  <node id="97" x="283.38" y="-6291.90" />
  <node id="98" x="65.31" y="-6957.64" />
  <node id="99" x="99.50" y="-7650.05" />
  <node id="100" x="258.39" y="-8104.42" />
  <node id="101" x="133.45" y="-8624.23" />
  <node id="102" x="32.70" y="-9536.90" />
  <node id="103" x="4.85" y="-9491.01" />
  <node id="104" x="112.63" y="-8587.75" />
  <node id="105" x="220.53" y="-8122.66" />
  <node id="106" x="10.41" y="-7507.09" />
  <node id="107" x="25.56" y="-6959.92" />
  <node id="108" x="257.68" y="-6268.54" />
  <node id="109" x="357.36" y="-5533.99" />
  <node id="110" x="355.64" y="-3964.86" />
  <node id="111" x="359.90" y="-3277.48" />
  <node id="112" x="357.77" y="-2772.20" />
  <node id="113" x="391.71" y="-1813.02" />
  <node id="114" x="369.84" y="-1554.31" />
  <node id="115" x="239.93" y="-1073.83" />
  <node id="116" x="157.59" y="-726.71" />
  <node id="117" x="119.63" y="-543.71" />
  <node id="118" x="-11074.59" y="-11049.65" />
  <node id="119" x="-10697.68" y="-11083.18" />
  <node id="120" x="-9934.42" y="-11141.78" />
  <node id="121" x="-9306.36" y="-11215.36" />
  <node id="122" x="-8914.46" y="-11504.83" />
  <node id="123" x="-8016.53" y="-11695.67" />
  <node id="124" x="-7536.14" y="-11694.57" />
  <node id="125" x="-6997.02" y="-11685.80" />
  <node id="126" x="-5568.73" y="-11677.36" />
  <node id="127" x="-5030.59" y="-11671.60" />
  <node id="128" x="-4426.24" y="-11671.19" />
  <node id="129" x="-3993.60" y="-11605.73" />
  <node id="130" x="-3382.53" y="-11334.82" />
  <node id="131" x="-2721.20" y="-11008.46" />
  <node id="132" x="-1882.64" y="-10501.24" />
  <node id="133" x="-1533.85" y="-10291.75" />
  <node id="134" x="-1295.26" y="-10232.52" />
  <node id="135" x="-659.32" y="-10241.05" />
  <node id="136" x="-475.04" y="-10236.43" />
  <node id="137" x="178.41" y="-10238.51" />
  <node id="138" x="922.49" y="-10315.22" />
  <node id="139" x="2188.04" y="-10465.47" />
  <node id="140" x="2912.21" y="-10654.51" />
  <node id="141" x="4252.42" y="-10386.21" />
  <node id="142" x="4121.32" y="-10555.69" />
  <node id="143" x="2877.03" y="-10681.89" />
  <node id="144" x="2173.42" y="-10485.68" />
  <node id="145" x="915.55" y="-10343.44" />
  <node id="146" x="828.29" y="-10338.36" />
  <node id="147" x="33.69" y="-10267.96" />
  <node id="148" x="-848.14" y="-10277.40" />
  <node id="149" x="-1110.39" y="-10273.10" />
  <node id="150" x="-1479.21" y="-10322.46" />
  <node id="151" x="-1873.54" y="-10522.08" />
  <node id="152" x="-2556.55" y="-10950.93" />
  <node id="153" x="-3375.25" y="-11373.21" />
  <node id="154" x="-4198.50" y="-11690.19" />
  <node id="155" x="-4424.19" y="-11690.54" />
  <node id="156" x="-5031.77" y="-11704.45" />
  <node id="157" x="-5570.90" y="-11708.83" />
  <node id="158" x="-6783.92" y="-11717.61" />
  <node id="159" x="-7327.60" y="-11720.90" />
  <node id="160" x="-8079.36" y="-11728.58" />
  <node id="161" x="-8852.53" y="-11601.35" />
  <node id="162" x="-9305.33" y="-11243.15" />
  <node id="163" x="-9999.07" y="-11165.91" />
  <node id="164" x="-10782.26" y="-11111.07" />
  <node id="165" x="-11074.59" y="-11092.42" />
  <node id="166" x="-11617.58" y="-1664.18" />
  <node id="167" x="-11238.51" y="-1661.71" />
  <node id="168" x="-10547.30" y="-1655.13" />
  <node id="169" x="-9704.47" y="-1623.05" />
  <node id="170" x="-9152.47" y="-1442.74" />
  <node id="171" x="-8538.76" y="-1651.69" />
  <node id="172" x="-8261.34" y="-1758.12" />
  <node id="173" x="-7853.57" y="-1908.36" />
  <node id="174" x="-7594.03" y="-1911.10" />
  <node id="175" x="-6977.04" y="-1890.54" />
  <node id="176" x="-5985.77" y="-1866.20" />
  <node id="177" x="-5443.25" y="-1869.50" />
  <node id="178" x="-4370.54" y="-1897.55" />
  <node id="179" x="-3338.59" y="-1894.25" />
  <node id="180" x="-1225.02" y="-1879.40" />
  <node id="181" x="-579.63" y="-1884.43" />
  <node id="182" x="-267.13" y="-1996.96" />
  <node id="183" x="58.30" y="-2175.86" />
  <node id="184" x="1004.99" y="-2667.89" />
  <node id="185" x="1358.68" y="-2722.18" />
  <node id="186" x="1991.51" y="-2647.73" />
  <node id="187" x="2606.32" y="-2467.73" />
  <node id="188" x="3897.84" y="-2207.84" />
  <node id="189" x="4472.85" y="-2672.87" />
  <node id="190" x="4561.78" y="-2800.94" />
  <node id="191" x="3894.00" y="-2246.40" />
  <node id="192" x="2528.83" y="-2539.64" />
  <node id="193" x="1725.65" y="-2755.81" />
  <node id="194" x="1360.10" y="-2773.48" />
  <node id="195" x="692.65" y="-2561.88" />
  <node id="196" x="-56.70" y="-2160.48" />
  <node id="197" x="-283.90" y="-2033.03" />
  <node id="198" x="-538.30" y="-1940.70" />
  <node id="199" x="-1170.19" y="-1903.19" />
  <node id="200" x="-3275.23" y="-1939.62" />
  <node id="201" x="-4366.43" y="-1927.25" />
  <node id="202" x="-5437.77" y="-1922.30" />
  <node id="203" x="-5969.33" y="-1925.60" />
  <node id="204" x="-7020.30" y="-1927.56" />
  <node id="205" x="-7619.07" y="-1944.01" />
  <node id="206" x="-7873.03" y="-1925.26" />
  <node id="207" x="-8450.07" y="-1716.42" />
  <node id="208" x="-9685.62" y="-1409.39" />
  <node id="209" x="-9610.27" y="-1592.91" />
  <node id="210" x="-9879.32" y="-1683.93" />
  <node id="211" x="-10588.63" y="-1691.29" />
  <node id="212" x="-11256.50" y="-1696.24" />
  <node id="213" x="-11616.90" y="-1697.09" />
  <node id="214" x="-10189.84" y="-993.43" />
  <node id="215" x="-9928.02" y="-1189.95" />
  <node id="216" x="-9737.40" y="-1303.54" />
  <node id="217" x="-8722.23" y="-1892.48" />
  <node id="218" x="-8417.43" y="-2137.21" />
  <node id="219" x="-7754.89" y="-2540.55" />
  <node id="220" x="-6979.13" y="-3060.93" />
  <node id="221" x="-5723.47" y="-3880.50" />
  <node id="222" x="-4847.00" y="-4260.58" />
  <node id="223" x="-4464.23" y="-4656.12" />
  <node id="224" x="-3613.98" y="-5739.16" />
  <node id="225" x="-3013.15" y="-6435.55" />
  <node id="226" x="-2332.96" y="-7207.24" />
  <node id="227" x="-1610.82" y="-7988.98" />
  <node id="228" x="-874.87" y="-8824.65" />
  <node id="229" x="-417.80" y="-9398.70" />
  <node id="230" x="-156.20" y="-9740.73" />
  <node id="231" x="498.86" y="-10421.50" />
  <node id="232" x="771.05" y="-10812.83" />
  <node id="233" x="872.98" y="-10964.91" />
  <node id="234" x="837.64" y="-11001.39" />
  <node id="235" x="654.05" y="-10709.89" />
  <node id="236" x="254.35" y="-10206.77" />
  <node id="237" x="178.08" y="-10115.46" />
  <node id="238" x="-265.80" y="-9667.76" />
  <node id="239" x="-481.87" y="-9384.45" />
  <node id="240" x="-1293.59" y="-8433.38" />
  <node id="241" x="-1884.82" y="-7757.24" />
  <node id="242" x="-2466.92" y="-7122.17" />
  <node id="243" x="-3125.72" y="-6375.38" />
  <node id="244" x="-3368.57" y="-6093.86" />
  <node id="245" x="-4756.22" y="-4386.71" />
  <node id="246" x="-5631.26" y="-3983.85" />
  <node id="247" x="-6851.63" y="-3198.04" />
  <node id="248" x="-7738.56" y="-2577.56" />
  <node id="249" x="-8545.69" y="-2086.59" />
  <node id="250" x="-8794.37" y="-1882.13" />
  <node id="251" x="-9352.09" y="-1559.58" />
  <node id="252" x="-10124.58" y="-1089.40" />
  <node id="253" x="-10202.74" y="-1025.42" />
  <node id="254" x="4888.96" y="-9266.61" />
  <node id="255" x="4659.67" y="-9265.28" />
  <node id="256" x="4411.66" y="-9268.91" />
  <node id="257" x="5359.57" y="-6750.26" />
  <node id="258" x="4549.81" y="-6757.17" />
  <node id="259" x="4384.22" y="-6799.83" />
  <node id="260" x="4270.83" y="-4121.57" />
  <node id="261" x="4060.11" y="-4019.44" />
  <node id="262" x="2865.01" y="-1988.63" />
  <node id="263" x="2631.68" y="-11536.07" />
  <node id="264" x="2491.13" y="-10681.89" />
  <node id="265" x="2493.83" y="-10561.30" />
  <node id="266" x="2503.42" y="-9267.95" />
  <node id="267" x="2510.12" y="-6896.66" />
  <node id="268" x="2515.37" y="-6160.44" />
  <node id="269" x="2573.71" y="-3950.13" />
  <node id="270" x="2560.24" y="-3177.34" />
  <node id="271" x="2341.50" y="-2705.82" />
  <node id="272" x="2220.35" y="-2462.63" />
  <node id="273" x="2107.05" y="-2227.55" />
  <node id="274" x="1660.59" y="-683.31" />
  <node id="275" x="1593.29" y="-18.60" />
  <node id="276" x="-430.11" y="-10903.77" />
  <node id="277" x="-581.87" y="-9104.65" />
  <node id="278" x="300.04" y="-8382.56" />
  <node id="279" x="168.47" y="-8385.98" />
  <node id="280" x="-223.61" y="-8346.09" />
  <node id="281" x="1214.34" y="-6908.24" />
  <node id="282" x="835.75" y="-7215.26" />
  <node id="283" x="98.75" y="-7235.02" />
  <node id="284" x="-151.36" y="-7236.45" />
  <node id="285" x="-301.12" y="-7288.93" />
  <node id="286" x="-595.80" y="-7526.98" />
  <node id="287" x="1108.33" y="-6166.52" />
  <node id="288" x="546.42" y="-5897.00" />
  <node id="289" x="150.04" y="-5905.80" />
  <node id="290" x="568.13" y="-3741.29" />
  <node id="291" x="160.93" y="-3668.49" />
  <node id="292" x="748.20" y="-2638.40" />
  <node id="293" x="322.28" y="-1073.83" />
  <node id="294" x="160.43" y="-1125.12" />
  <node id="295" x="-278.98" y="-1260.21" />
  <node id="296" x="-970.14" y="-10765.57" />
  <node id="297" x="-849.02" y="-10383.88" />
  <node id="298" x="-802.58" y="-10128.32" />
  <node id="299" x="-985.62" y="-9133.51" />
  <node id="300" x="-832.67" y="-8344.38" />
  <node id="301" x="-832.99" y="-7959.44" />
  <node id="302" x="-834.78" y="-7539.97" />
  <node id="303" x="-838.38" y="-5890.92" />
  <node id="304" x="-836.58" y="-3462.79" />
  <node id="305" x="-838.38" y="-2656.30" />
  <node id="306" x="-840.17" y="-1960.17" />
  <node id="307" x="-837.78" y="-1815.18" />
  <node id="308" x="-851.13" y="-1272.18" />
  <node id="309" x="-858.23" y="-895.99" />
  <node id="310" x="-2108.49" y="-10755.70" />
  <node id="311" x="-1905.41" y="-7537.27" />
  <node id="312" x="-1178.28" y="-3432.49" />
  <node id="313" x="-2407.19" y="-10756.80" />
  <node id="314" x="-2400.82" y="-10596.66" />
  <node id="315" x="-2400.82" y="-9151.06" />
  <node id="316" x="-2420.86" y="-8339.41" />
  <node id="317" x="-2442.52" y="-7539.37" />
  <node id="318" x="-2391.30" y="-6733.21" />
  <node id="319" x="-2574.85" y="-5900.32" />
  <node id="320" x="-3138.86" y="-3838.92" />
  <node id="321" x="-3471.83" y="-2655.90" />
  <node id="322" x="-3705.82" y="-12399.83" />
  <node id="323" x="-3713.74" y="-11572.50" />
  <node id="324" x="-3714.02" y="-11418.18" />
  <node id="325" x="-3693.99" y="-10767.76" />
  <node id="326" x="-3209.50" y="-10410.20" />
  <node id="327" x="-3213.15" y="-9164.22" />
  <node id="328" x="-3222.25" y="-8343.80" />
  <node id="329" x="-3240.47" y="-7536.54" />
  <node id="330" x="-3251.56" y="-5901.11" />
  <node id="331" x="-3380.90" y="-5066.67" />
  <node id="332" x="-3633.19" y="-4116.56" />
  <node id="333" x="-4028.91" y="-2663.62" />
  <node id="334" x="-4064.77" y="-2327.37" />
  <node id="335" x="-4071.88" y="-2009.75" />
  <node id="336" x="-4071.88" y="-1867.85" />
  <node id="337" x="-4074.28" y="-1296.53" />
  <node id="338" x="-4078.39" y="-549.07" />
  <node id="339" x="-3646.00" y="-5899.57" />
  <node id="340" x="-4001.79" y="-10763.38" />
  <node id="341" x="-4029.12" y="-9155.44" />
  <node id="342" x="-4034.58" y="-8365.74" />
  <node id="343" x="-4052.79" y="-7540.93" />
  <node id="344" x="-3877.03" y="-5901.92" />
  <node id="345" x="-4329.34" y="-4285.94" />
  <node id="346" x="-4617.91" y="-4288.00" />
  <node id="347" x="-5056.89" y="-4302.35" />
  <node id="348" x="-5308.62" y="-12412.99" />
  <node id="349" x="-5319.55" y="-11772.45" />
  <node id="350" x="-5319.55" y="-11591.47" />
  <node id="351" x="-5332.30" y="-10782.02" />
  <node id="352" x="-5605.50" y="-10167.81" />
  <node id="353" x="-5639.20" y="-9177.38" />
  <node id="354" x="-5653.77" y="-8378.90" />
  <node id="355" x="-5652.86" y="-7567.25" />
  <node id="356" x="-5677.14" y="-5922.03" />
  <node id="357" x="-5654.37" y="-4302.39" />
  <node id="358" x="-5681.41" y="-2682.53" />
  <node id="359" x="-5695.33" y="-1975.10" />
  <node id="360" x="-5689.85" y="-1829.89" />
  <node id="361" x="-5692.59" y="-1320.04" />
  <node id="362" x="-5698.07" y="-498.33" />
  <node id="363" x="-7148.74" y="-2688.02" />
  <node id="364" x="-6895.02" y="-12421.76" />
  <node id="365" x="-6911.42" y="-11831.68" />
  <node id="366" x="-6910.51" y="-11609.02" />
  <node id="367" x="-6915.06" y="-10794.09" />
  <node id="368" x="-7259.30" y="-10202.90" />
  <node id="369" x="-7252.92" y="-9181.77" />
  <node id="370" x="-7241.99" y="-8378.90" />
  <node id="371" x="-7261.72" y="-7567.25" />
  <node id="372" x="-7273.87" y="-5943.96" />
  <node id="373" x="-7279.94" y="-4313.36" />
  <node id="374" x="-7267.92" y="-2923.45" />
  <node id="375" x="-7289.90" y="-2683.90" />
  <node id="376" x="-7304.89" y="-1990.62" />
  <node id="377" x="-7302.61" y="-1839.81" />
  <node id="378" x="-7309.44" y="-1329.79" />
  <node id="379" x="-7311.72" y="-512.66" />
  <node id="380" x="-8512.39" y="-12439.31" />
  <node id="381" x="-8520.69" y="-11789.78" />
  <node id="382" x="-8523.32" y="-11618.35" />
  <node id="383" x="-8537.43" y="-11055.13" />
  <node id="384" x="-8766.93" y="-10805.06" />
  <node id="385" x="-8797.43" y="-9193.83" />
  <node id="386" x="-8815.65" y="-8413.99" />
  <node id="387" x="-8834.16" y="-7574.56" />
  <node id="388" x="-8840.24" y="-5965.90" />
  <node id="389" x="-8841.75" y="-4324.33" />
  <node id="390" x="-8854.27" y="-2720.92" />
  <node id="391" x="-8872.49" y="-1878.08" />
  <node id="392" x="-8873.34" y="-1621.02" />
  <node id="393" x="-8872.49" y="-1489.40" />
  <node id="394" x="-8868.98" y="-1338.02" />
  <node id="395" x="-8882.64" y="-540.08" />
  <node id="396" x="-9410.45" y="-1339.84" />
  <node id="397" x="-10119.28" y="-11866.78" />
  <node id="398" x="-10133.86" y="-11647.41" />
  <node id="399" x="-10294.13" y="-11285.46" />
  <node id="400" x="-10390.49" y="-10953.47" />
  <node id="401" x="-10396.13" y="-10831.38" />
  <node id="402" x="-10401.14" y="-9189.44" />
  <node id="403" x="-10417.53" y="-8406.32" />
  <node id="404" x="-10439.39" y="-7596.87" />
  <node id="405" x="-10433.92" y="-5977.96" />
  <node id="406" x="-10461.24" y="-4352.48" />
  <node id="407" x="-10864.22" y="-2722.34" />
  <node id="408" x="-10882.43" y="-1794.43" />
  <node id="409" x="-10880.61" y="-1568.49" />
  <node id="410" x="-10887.90" y="-1357.90" />
  <node id="411" x="-10891.54" y="-892.85" />
  <node id="412" x="-11237.14" y="-9189.44" />
  <node id="413" x="-11259.00" y="-7596.87" />
  <node id="414" x="-11253.54" y="-5977.96" />
  <node id="415" x="-11275.39" y="-4352.48" />
  <node id="416" x="-11269.47" y="-2718.22" />
</nodes>
</network>
