<?xml version="1.0" encoding="UTF-8"?>

<!-- generated on 2025-05-07 17:00:36 by Eclipse SUMO netconvert Version 1.19.0
<configuration xmlns:xsi="http://www.w3.org/2001/XMLSchema-instance" xsi:noNamespaceSchemaLocation="http://sumo.dlr.de/xsd/netconvertConfiguration.xsd">

    <input>
        <node-files value="c:\Users\luuks\bep-vrp\output\anaheim.nod.xml"/>
        <edge-files value="c:\Users\luuks\bep-vrp\output\anaheim.edg.xml"/>
    </input>

    <output>
        <output-file value="c:\Users\luuks\bep-vrp\output\anaheim.net.xml"/>
    </output>

</configuration>
-->

<net version="1.16" junctionCornerDetail="5" limitTurnSpeed="5.50" xmlns:xsi="http://www.w3.org/2001/XMLSchema-instance" xsi:noNamespaceSchemaLocation="http://sumo.dlr.de/xsd/net_file.xsd">

    <location netOffset="12084.08,13242.18" convBoundary="0.00,0.00,18308.91,13799.13" origBoundary="-12084.08,-13242.18,6224.83,556.95" projParameter="!"/>

    <edge id=":1_0" function="internal">
        <lane id=":1_0_0" index="0" speed="3.67" length="4.67" shape="12085.62,13242.61 12084.56,13243.58 12083.68,13243.77 12083.00,13243.19 12082.52,13241.84"/>
    </edge>
    <edge id=":10_0" function="internal">
        <lane id=":10_0_0" index="0" speed="11.71" length="17.15" shape="7221.87,13150.88 7217.81,13152.65 7213.72,13153.33 7209.59,13152.93 7205.43,13151.43"/>
        <lane id=":10_0_1" index="1" speed="10.63" length="14.03" shape="7220.28,13148.11 7216.96,13149.55 7213.61,13150.11 7210.23,13149.78 7206.83,13148.56"/>
        <lane id=":10_0_2" index="2" speed="9.42" length="10.91" shape="7218.69,13145.33 7216.11,13146.45 7213.50,13146.89 7210.88,13146.63 7208.23,13145.68"/>
    </edge>
    <edge id=":10_3" function="internal">
        <lane id=":10_3_0" index="0" speed="4.06" length="1.56" shape="7212.43,13137.05 7212.81,13137.18 7213.18,13137.22 7213.55,13137.16 7213.92,13137.00"/>
        <lane id=":10_3_1" index="1" speed="6.37" length="4.68" shape="7211.03,13139.92 7212.16,13140.33 7213.29,13140.44 7214.40,13140.26 7215.51,13139.77"/>
        <lane id=":10_3_2" index="2" speed="8.04" length="7.79" shape="7209.63,13142.80 7211.52,13143.48 7213.40,13143.66 7215.26,13143.35 7217.10,13142.55"/>
    </edge>
    <edge id=":100_0" function="internal">
        <lane id=":100_0_0" index="0" speed="19.01" length="40.19" shape="12349.33,5102.77 12350.45,5108.46 12353.14,5117.59 12354.73,5129.34 12352.55,5142.87"/>
        <lane id=":100_0_1" index="1" speed="19.01" length="40.19" shape="12349.33,5102.77 12349.95,5108.36 12351.57,5117.23 12352.11,5128.64 12349.53,5141.82"/>
    </edge>
    <edge id=":100_2" function="internal">
        <lane id=":100_2_0" index="0" speed="24.60" length="39.12" shape="12345.62,5102.93 12349.60,5114.72 12353.31,5123.11 12354.91,5131.40 12352.55,5142.87"/>
        <lane id=":100_2_1" index="1" speed="24.60" length="39.12" shape="12342.51,5103.68 12346.41,5115.02 12350.12,5122.95 12351.77,5130.79 12349.53,5141.82"/>
        <lane id=":100_2_2" index="2" speed="24.60" length="39.12" shape="12339.39,5104.42 12343.19,5115.24 12346.86,5122.79 12348.58,5130.24 12346.51,5140.76"/>
        <lane id=":100_2_3" index="3" speed="24.60" length="39.12" shape="12336.28,5105.17 12339.97,5115.46 12343.61,5122.63 12345.40,5129.70 12343.49,5139.70"/>
    </edge>
    <edge id=":101_0" function="internal">
        <lane id=":101_0_0" index="0" speed="19.01" length="23.36" shape="12230.09,4629.68 12231.98,4637.03 12235.12,4642.40 12238.55,4646.40 12241.33,4649.66"/>
    </edge>
    <edge id=":101_1" function="internal">
        <lane id=":101_1_0" index="0" speed="24.60" length="23.65" shape="12230.09,4629.68 12231.35,4636.34 12233.07,4640.70 12235.07,4645.02 12237.12,4651.53"/>
        <lane id=":101_1_1" index="1" speed="24.60" length="23.65" shape="12226.91,4630.03 12228.18,4636.81 12229.92,4641.25 12231.93,4645.65 12234.01,4652.28"/>
        <lane id=":101_1_2" index="2" speed="24.60" length="23.65" shape="12223.73,4630.38 12225.01,4637.28 12226.76,4641.80 12228.79,4646.28 12230.90,4653.03"/>
        <lane id=":101_1_3" index="3" speed="24.60" length="23.65" shape="12220.55,4630.73 12221.84,4637.75 12223.61,4642.35 12225.65,4646.91 12227.79,4653.78"/>
    </edge>
    <edge id=":102_0" function="internal">
        <lane id=":102_0_0" index="0" speed="22.36" length="45.26" shape="12145.42,3676.86 12138.94,3688.09 12133.24,3695.74 12129.56,3703.56 12129.15,3715.27"/>
        <lane id=":102_0_1" index="1" speed="22.36" length="45.26" shape="12142.50,3675.54 12135.84,3687.34 12130.07,3695.54 12126.37,3703.75 12125.97,3715.62"/>
        <lane id=":102_0_2" index="2" speed="22.36" length="45.26" shape="12139.58,3674.23 12132.74,3686.60 12126.89,3695.33 12123.19,3703.95 12122.79,3715.97"/>
        <lane id=":102_0_3" index="3" speed="22.36" length="45.26" shape="12136.67,3672.91 12129.64,3685.86 12123.71,3695.13 12120.00,3704.14 12119.61,3716.32"/>
    </edge>
    <edge id=":102_4" function="internal">
        <lane id=":102_4_0" index="0" speed="22.36" length="44.79" shape="12130.02,3670.86 12129.15,3715.27"/>
        <lane id=":102_4_1" index="1" speed="22.36" length="44.79" shape="12126.83,3670.96 12125.97,3715.62"/>
        <lane id=":102_4_2" index="2" speed="22.36" length="44.79" shape="12123.63,3671.07 12122.79,3715.97"/>
        <lane id=":102_4_3" index="3" speed="22.36" length="44.79" shape="12120.43,3671.18 12119.61,3716.32"/>
    </edge>
    <edge id=":103_0" function="internal">
        <lane id=":103_0_0" index="0" speed="22.36" length="35.39" shape="12078.28,3756.47 12075.82,3746.61 12071.88,3740.61 12066.98,3734.89 12061.63,3725.83"/>
        <lane id=":103_0_1" index="1" speed="22.36" length="35.13" shape="12078.28,3756.47 12076.28,3746.42 12073.34,3739.95 12069.43,3733.76 12064.55,3724.51"/>
        <lane id=":103_0_2" index="2" speed="22.36" length="35.25" shape="12078.28,3756.47 12076.73,3746.18 12074.80,3739.29 12071.91,3732.67 12067.46,3723.19"/>
        <lane id=":103_0_3" index="3" speed="22.36" length="35.76" shape="12078.28,3756.47 12077.19,3745.90 12076.29,3738.62 12074.41,3731.62 12070.38,3721.87"/>
        <lane id=":103_0_4" index="4" speed="22.36" length="36.63" shape="12078.28,3756.47 12077.65,3745.58 12077.79,3737.95 12076.93,3730.60 12073.29,3720.55"/>
    </edge>
    <edge id=":103_5" function="internal">
        <lane id=":103_5_0" index="0" speed="22.36" length="35.28" shape="12078.28,3756.47 12077.07,3745.61 12076.69,3738.12 12077.16,3730.64 12078.50,3719.80"/>
        <lane id=":103_5_1" index="1" speed="22.36" length="35.28" shape="12081.46,3756.09 12080.27,3745.48 12079.90,3738.16 12080.36,3730.85 12081.67,3720.26"/>
        <lane id=":103_5_2" index="2" speed="22.36" length="35.28" shape="12084.64,3755.71 12083.48,3745.35 12083.11,3738.20 12083.56,3731.06 12084.83,3720.72"/>
        <lane id=":103_5_3" index="3" speed="22.36" length="35.28" shape="12087.82,3755.33 12086.68,3745.22 12086.32,3738.25 12086.76,3731.27 12088.00,3721.18"/>
        <lane id=":103_5_4" index="4" speed="22.36" length="35.28" shape="12087.82,3755.33 12087.18,3745.34 12087.92,3738.48 12089.44,3731.62 12091.17,3721.64"/>
    </edge>
    <edge id=":103_10" function="internal">
        <lane id=":103_10_0" index="0" speed="22.36" length="36.02" shape="12087.82,3755.33 12085.44,3744.86 12082.61,3737.66 12081.07,3730.56 12082.53,3720.38"/>
        <lane id=":103_10_1" index="1" speed="22.36" length="35.05" shape="12087.82,3755.33 12085.97,3745.05 12084.27,3737.90 12083.81,3730.84 12085.72,3720.84"/>
        <lane id=":103_10_2" index="2" speed="22.36" length="34.44" shape="12087.82,3755.33 12086.50,3745.19 12085.90,3738.13 12086.54,3731.17 12088.91,3721.31"/>
        <lane id=":103_10_3" index="3" speed="22.36" length="34.24" shape="12087.82,3755.33 12087.00,3745.29 12087.51,3738.37 12089.24,3731.53 12092.10,3721.77"/>
        <lane id=":103_10_4" index="4" speed="22.36" length="34.43" shape="12087.82,3755.33 12087.50,3745.35 12089.10,3738.60 12091.93,3731.94 12095.30,3722.24"/>
    </edge>
    <edge id=":104_0" function="internal">
        <lane id=":104_0_0" index="0" speed="24.60" length="7.02" shape="12186.58,4660.32 12186.06,4658.07 12185.74,4656.53 12185.51,4654.98 12185.22,4652.70"/>
        <lane id=":104_0_1" index="1" speed="24.60" length="7.02" shape="12189.66,4659.46 12189.18,4657.36 12188.89,4655.91 12188.66,4654.46 12188.40,4652.32"/>
        <lane id=":104_0_2" index="2" speed="24.60" length="7.02" shape="12192.75,4658.61 12192.30,4656.65 12192.03,4655.30 12191.82,4653.93 12191.58,4651.94"/>
        <lane id=":104_0_3" index="3" speed="24.60" length="7.02" shape="12195.84,4657.75 12195.42,4655.93 12195.17,4654.68 12194.98,4653.41 12194.76,4651.56"/>
    </edge>
    <edge id=":104_4" function="internal">
        <lane id=":104_4_0" index="0" speed="19.01" length="6.89" shape="12195.96,4657.72 12194.93,4655.85 12193.57,4654.87 12192.31,4653.87 12191.58,4651.94"/>
        <lane id=":104_4_1" index="1" speed="19.01" length="6.89" shape="12195.96,4657.72 12195.47,4655.92 12195.18,4654.67 12194.98,4653.41 12194.76,4651.56"/>
    </edge>
    <edge id=":105_0" function="internal">
        <lane id=":105_0_0" index="0" speed="8.73" length="6.56" shape="12292.34,5120.78 12292.69,5119.70 12292.83,5118.92 12292.77,5118.13 12292.53,5117.02"/>
        <lane id=":105_0_1" index="1" speed="10.48" length="6.56" shape="12295.37,5121.82 12295.88,5120.23 12296.08,5119.09 12296.00,5117.93 12295.65,5116.30"/>
        <lane id=":105_0_2" index="2" speed="11.97" length="6.56" shape="12298.40,5122.85 12299.07,5120.76 12299.33,5119.25 12299.22,5117.72 12298.77,5115.57"/>
        <lane id=":105_0_3" index="3" speed="13.30" length="6.56" shape="12301.43,5123.89 12302.26,5121.29 12302.59,5119.41 12302.45,5117.52 12301.88,5114.85"/>
    </edge>
    <edge id=":105_4" function="internal">
        <lane id=":105_4_0" index="0" speed="14.11" length="9.29" shape="12301.43,5123.89 12302.27,5121.28 12302.62,5119.41 12302.53,5117.51 12302.05,5114.81"/>
    </edge>
    <edge id=":106_0" function="internal">
        <lane id=":106_0_0" index="0" speed="24.60" length="30.52" shape="12083.96,5759.52 12083.24,5749.95 12082.48,5743.28 12082.76,5736.78 12085.18,5727.69"/>
        <lane id=":106_0_1" index="1" speed="24.60" length="30.52" shape="12087.16,5759.43 12086.45,5750.20 12085.67,5743.77 12085.89,5737.49 12088.21,5728.72"/>
        <lane id=":106_0_2" index="2" speed="24.60" length="30.52" shape="12090.36,5759.34 12089.65,5750.45 12088.85,5744.25 12089.03,5738.21 12091.24,5729.75"/>
        <lane id=":106_0_3" index="3" speed="24.60" length="30.52" shape="12093.56,5759.25 12092.86,5750.70 12092.04,5744.74 12092.16,5738.92 12094.27,5730.79"/>
    </edge>
    <edge id=":106_4" function="internal">
        <lane id=":106_4_0" index="0" speed="19.01" length="31.08" shape="12078.83,5758.18 12080.19,5753.67 12081.08,5746.85 12082.43,5738.06 12085.18,5727.69"/>
        <lane id=":106_4_1" index="1" speed="19.01" length="31.08" shape="12078.83,5758.18 12080.67,5753.82 12082.61,5747.32 12085.00,5738.89 12088.21,5728.72"/>
    </edge>
    <edge id=":107_0" function="internal">
        <lane id=":107_0_0" index="0" speed="19.01" length="31.75" shape="12100.30,6289.62 12097.37,6279.06 12095.64,6270.17 12094.36,6263.31 12092.75,6258.83"/>
    </edge>
    <edge id=":107_1" function="internal">
        <lane id=":107_1_0" index="0" speed="24.60" length="31.27" shape="12100.30,6289.62 12097.78,6280.36 12097.25,6273.77 12097.61,6267.02 12097.74,6257.30"/>
        <lane id=":107_1_1" index="1" speed="24.60" length="31.27" shape="12103.33,6288.60 12100.90,6279.61 12100.42,6273.21 12100.80,6266.65 12100.94,6257.21"/>
        <lane id=":107_1_2" index="2" speed="24.60" length="31.27" shape="12106.36,6287.58 12104.02,6278.86 12103.59,6272.65 12103.98,6266.28 12104.14,6257.12"/>
        <lane id=":107_1_3" index="3" speed="24.60" length="31.27" shape="12109.40,6286.56 12107.15,6278.11 12106.76,6272.08 12107.17,6265.91 12107.34,6257.03"/>
    </edge>
    <edge id=":108_0" function="internal">
        <lane id=":108_0_0" index="0" speed="24.60" length="18.07" shape="12334.68,7004.78 12334.58,6999.70 12335.27,6996.14 12335.67,6992.65 12334.69,6987.78"/>
        <lane id=":108_0_1" index="1" speed="24.60" length="18.07" shape="12337.85,7004.35 12337.73,6999.10 12338.40,6995.41 12338.76,6991.80 12337.73,6986.76"/>
        <lane id=":108_0_2" index="2" speed="24.60" length="18.07" shape="12341.03,7003.92 12340.87,6998.49 12341.52,6994.69 12341.85,6990.95 12340.76,6985.74"/>
        <lane id=":108_0_3" index="3" speed="24.60" length="18.07" shape="12344.20,7003.49 12344.02,6997.89 12344.64,6993.96 12344.94,6990.10 12343.79,6984.72"/>
    </edge>
    <edge id=":108_4" function="internal">
        <lane id=":108_4_0" index="0" speed="16.79" length="18.76" shape="12330.94,7004.49 12332.51,7001.00 12334.37,6997.38 12335.46,6993.14 12334.69,6987.78"/>
        <lane id=":108_4_1" index="1" speed="17.76" length="18.76" shape="12330.94,7004.49 12333.02,7000.97 12336.00,6997.20 12338.14,6992.65 12337.73,6986.76"/>
    </edge>
    <edge id=":109_0" function="internal">
        <lane id=":109_0_0" index="0" speed="19.01" length="23.39" shape="12430.25,7695.84 12429.16,7688.34 12426.56,7682.69 12423.49,7678.37 12421.02,7674.86"/>
    </edge>
    <edge id=":109_1" function="internal">
        <lane id=":109_1_0" index="0" speed="24.60" length="23.72" shape="12430.25,7695.84 12429.72,7689.09 12428.42,7684.58 12426.82,7680.09 12425.42,7673.39"/>
        <lane id=":109_1_1" index="1" speed="24.60" length="23.72" shape="12433.45,7695.84 12432.92,7688.96 12431.61,7684.36 12430.01,7679.78 12428.59,7672.96"/>
        <lane id=":109_1_2" index="2" speed="24.60" length="23.72" shape="12436.65,7695.85 12436.12,7688.84 12434.81,7684.15 12433.20,7679.48 12431.76,7672.53"/>
        <lane id=":109_1_3" index="3" speed="24.60" length="23.72" shape="12439.85,7695.85 12439.32,7688.71 12438.01,7683.93 12436.39,7679.18 12434.93,7672.10"/>
    </edge>
    <edge id=":11_0" function="internal">
        <lane id=":11_0_0" index="0" speed="3.65" length="4.67" shape="11227.45,12722.37 11226.65,12723.57 11225.85,12723.97 11225.05,12723.57 11224.25,12722.37"/>
    </edge>
    <edge id=":110_0" function="internal">
        <lane id=":110_0_0" index="0" speed="24.60" length="8.58" shape="12428.65,9298.11 12428.51,9289.50"/>
        <lane id=":110_0_1" index="1" speed="24.60" length="8.58" shape="12431.85,9298.09 12431.71,9289.50"/>
        <lane id=":110_0_2" index="2" speed="24.60" length="8.58" shape="12435.05,9298.07 12434.91,9289.51"/>
        <lane id=":110_0_3" index="3" speed="24.60" length="8.58" shape="12438.25,9298.05 12438.11,9289.51"/>
    </edge>
    <edge id=":110_4" function="internal">
        <lane id=":110_4_0" index="0" speed="12.35" length="9.61" shape="12424.88,9297.00 12426.41,9294.94 12427.55,9293.50 12428.26,9291.94 12428.51,9289.50"/>
        <lane id=":110_4_1" index="1" speed="13.72" length="9.61" shape="12424.88,9297.00 12427.10,9294.78 12429.32,9293.58 12431.02,9292.22 12431.71,9289.50"/>
    </edge>
    <edge id=":111_0" function="internal">
        <lane id=":111_0_0" index="0" speed="19.01" length="15.48" shape="12432.84,9950.76 12432.38,9945.93 12431.17,9942.39 12429.53,9939.45 12427.78,9936.40"/>
    </edge>
    <edge id=":111_1" function="internal">
        <lane id=":111_1_0" index="0" speed="24.60" length="15.58" shape="12432.84,9950.76 12432.60,9935.23"/>
        <lane id=":111_1_1" index="1" speed="24.60" length="15.58" shape="12436.04,9950.77 12435.80,9935.21"/>
        <lane id=":111_1_2" index="2" speed="24.60" length="15.58" shape="12439.24,9950.78 12439.00,9935.19"/>
        <lane id=":111_1_3" index="3" speed="24.60" length="15.58" shape="12442.44,9950.80 12442.20,9935.17"/>
    </edge>
    <edge id=":112_0" function="internal">
        <lane id=":112_0_0" index="0" speed="24.60" length="24.67" shape="12431.33,10489.39 12430.67,10464.53"/>
        <lane id=":112_0_1" index="1" speed="24.60" length="24.67" shape="12434.53,10489.27 12433.87,10464.55"/>
        <lane id=":112_0_2" index="2" speed="24.60" length="24.67" shape="12437.73,10489.16 12437.07,10464.56"/>
        <lane id=":112_0_3" index="3" speed="24.60" length="24.67" shape="12440.92,10489.05 12440.27,10464.57"/>
    </edge>
    <edge id=":112_4" function="internal">
        <lane id=":112_4_0" index="0" speed="10.91" length="24.02" shape="12444.05,10481.68 12438.17,10479.79 12433.98,10476.31 12431.49,10471.22 12430.67,10464.53"/>
        <lane id=":112_4_1" index="1" speed="9.85" length="19.43" shape="12444.56,10478.52 12439.86,10477.00 12436.52,10474.16 12434.52,10470.01 12433.87,10464.55"/>
        <lane id=":112_4_2" index="2" speed="8.67" length="14.83" shape="12445.07,10475.36 12441.55,10474.20 12439.05,10472.01 12437.56,10468.80 12437.07,10464.56"/>
        <lane id=":112_4_3" index="3" speed="7.30" length="10.24" shape="12445.57,10472.20 12443.24,10471.40 12441.58,10469.86 12440.59,10467.59 12440.27,10464.57"/>
    </edge>
    <edge id=":112_8" function="internal">
        <lane id=":112_8_0" index="0" speed="19.36" length="24.98" shape="12419.56,10482.90 12423.83,10477.79 12427.36,10474.41 12429.76,10470.68 12430.67,10464.53"/>
        <lane id=":112_8_1" index="1" speed="20.14" length="24.98" shape="12422.21,10484.70 12426.78,10479.12 12430.47,10475.38 12432.95,10471.25 12433.87,10464.55"/>
        <lane id=":112_8_2" index="2" speed="20.90" length="24.98" shape="12424.86,10486.49 12429.73,10480.45 12433.59,10476.34 12436.13,10471.82 12437.07,10464.56"/>
        <lane id=":112_8_3" index="3" speed="21.63" length="24.98" shape="12427.51,10488.29 12432.68,10481.77 12436.70,10477.30 12439.32,10472.39 12440.27,10464.57"/>
    </edge>
    <edge id=":113_0" function="internal">
        <lane id=":113_0_0" index="0" speed="13.54" length="18.42" shape="12464.01,11435.57 12463.40,11433.73 12461.37,11430.69 12457.91,11426.43 12453.03,11420.95"/>
        <lane id=":113_0_1" index="1" speed="13.87" length="19.32" shape="12464.01,11435.57 12463.68,11431.98 12462.14,11427.98 12459.38,11423.58 12455.39,11418.78"/>
        <lane id=":113_0_2" index="2" speed="14.29" length="20.54" shape="12464.01,11435.57 12463.97,11430.22 12462.91,11425.27 12460.84,11420.74 12457.75,11416.62"/>
        <lane id=":113_0_3" index="3" speed="14.77" length="21.99" shape="12464.01,11435.57 12464.25,11428.46 12463.68,11422.57 12462.30,11417.90 12460.10,11414.45"/>
    </edge>
    <edge id=":113_4" function="internal">
        <lane id=":113_4_0" index="0" speed="24.60" length="39.95" shape="12464.01,11435.57 12464.71,11423.92 12464.60,11415.93 12464.04,11407.93 12463.42,11396.25"/>
        <lane id=":113_4_1" index="1" speed="24.60" length="39.95" shape="12467.20,11435.84 12467.91,11424.08 12467.80,11416.01 12467.24,11407.93 12466.62,11396.14"/>
        <lane id=":113_4_2" index="2" speed="24.60" length="39.95" shape="12470.39,11436.11 12471.11,11424.25 12471.00,11416.09 12470.44,11407.92 12469.81,11396.03"/>
        <lane id=":113_4_3" index="3" speed="24.60" length="39.95" shape="12473.57,11436.38 12474.30,11424.46 12474.19,11416.17 12473.64,11407.86 12473.01,11395.91"/>
    </edge>
    <edge id=":113_8" function="internal">
        <lane id=":113_8_0" index="0" speed="22.36" length="40.34" shape="12473.57,11436.38 12473.74,11424.37 12473.03,11415.96 12473.40,11407.81 12476.81,11396.58"/>
        <lane id=":113_8_1" index="1" speed="22.36" length="39.40" shape="12473.57,11436.38 12474.21,11424.68 12474.56,11416.57 12475.97,11408.72 12479.78,11397.77"/>
        <lane id=":113_8_2" index="2" speed="22.36" length="38.78" shape="12473.57,11436.38 12474.68,11424.95 12476.08,11417.17 12478.52,11409.65 12482.75,11398.96"/>
        <lane id=":113_8_3" index="3" speed="22.36" length="38.51" shape="12473.57,11436.38 12475.15,11425.18 12477.58,11417.78 12481.04,11410.62 12485.72,11400.16"/>
    </edge>
    <edge id=":114_0" function="internal">
        <lane id=":114_0_0" index="0" speed="24.60" length="1.15" shape="12442.81,11686.06 12442.83,11685.98 12442.84,11685.92 12442.85,11685.86 12442.86,11685.78"/>
        <lane id=":114_0_1" index="1" speed="24.60" length="1.15" shape="12445.90,11686.90 12445.96,11686.65 12446.00,11686.48 12446.02,11686.30 12446.05,11686.05"/>
        <lane id=":114_0_2" index="2" speed="24.60" length="1.15" shape="12448.99,11687.73 12449.09,11687.32 12449.16,11687.03 12449.20,11686.74 12449.23,11686.32"/>
        <lane id=":114_0_3" index="3" speed="24.60" length="1.15" shape="12452.07,11688.57 12452.23,11687.99 12452.32,11687.59 12452.37,11687.18 12452.42,11686.59"/>
    </edge>
    <edge id=":115_0" function="internal">
        <lane id=":115_0_0" index="0" speed="5.94" length="9.09" shape="12309.37,12157.00 12311.74,12158.09 12313.67,12158.02 12315.15,12156.78 12316.19,12154.38"/>
        <lane id=":115_0_1" index="1" speed="6.82" length="12.38" shape="12309.37,12157.00 12313.00,12158.83 12315.86,12159.14 12317.95,12157.94 12319.27,12155.21"/>
    </edge>
    <edge id=":115_2" function="internal">
        <lane id=":115_2_0" index="0" speed="24.60" length="15.64" shape="12312.19,12169.66 12316.19,12154.38"/>
        <lane id=":115_2_1" index="1" speed="24.60" length="15.64" shape="12315.30,12170.40 12319.27,12155.21"/>
        <lane id=":115_2_2" index="2" speed="24.60" length="15.64" shape="12318.42,12171.13 12322.36,12156.05"/>
        <lane id=":115_2_3" index="3" speed="24.60" length="15.64" shape="12321.53,12171.87 12325.45,12156.89"/>
    </edge>
    <edge id=":116_0" function="internal">
        <lane id=":116_0_0" index="0" speed="19.01" length="16.22" shape="12239.58,12470.42 12240.41,12465.27 12240.64,12461.26 12240.58,12457.80 12240.51,12454.28"/>
    </edge>
    <edge id=":116_1" function="internal">
        <lane id=":116_1_0" index="0" speed="24.60" length="16.31" shape="12239.58,12470.42 12240.79,12465.71 12241.98,12462.58 12243.21,12459.46 12244.56,12454.77"/>
        <lane id=":116_1_1" index="1" speed="24.60" length="16.31" shape="12242.71,12471.07 12243.92,12466.39 12245.11,12463.27 12246.33,12460.17 12247.67,12455.51"/>
        <lane id=":116_1_2" index="2" speed="24.60" length="16.31" shape="12245.84,12471.72 12247.05,12467.06 12248.23,12463.97 12249.45,12460.88 12250.78,12456.25"/>
        <lane id=":116_1_3" index="3" speed="24.60" length="16.31" shape="12248.98,12472.37 12250.17,12467.74 12251.35,12464.66 12252.57,12461.59 12253.90,12456.99"/>
    </edge>
    <edge id=":117_0" function="internal">
        <lane id=":117_0_0" index="0" speed="24.60" length="8.00" shape="12191.90,12700.00 12193.56,12692.23"/>
        <lane id=":117_0_1" index="1" speed="24.60" length="8.00" shape="12195.03,12700.69 12196.70,12692.88"/>
        <lane id=":117_0_2" index="2" speed="24.60" length="8.00" shape="12198.16,12701.38 12199.83,12693.53"/>
        <lane id=":117_0_3" index="3" speed="24.60" length="8.00" shape="12201.28,12702.07 12202.96,12694.18"/>
    </edge>
    <edge id=":118_0" function="internal">
        <lane id=":118_0_0" index="0" speed="24.60" length="9.75" shape="1030.86,2201.87 1028.41,2202.11 1026.73,2202.35 1025.09,2202.76 1022.73,2203.48"/>
        <lane id=":118_0_1" index="1" speed="24.60" length="9.75" shape="1030.58,2198.69 1027.92,2198.94 1026.11,2199.21 1024.33,2199.65 1021.77,2200.43"/>
        <lane id=":118_0_2" index="2" speed="24.60" length="9.75" shape="1030.30,2195.50 1027.43,2195.77 1025.48,2196.06 1023.57,2196.54 1020.82,2197.38"/>
        <lane id=":118_0_3" index="3" speed="24.60" length="9.75" shape="1030.01,2192.31 1026.95,2192.60 1024.86,2192.91 1022.81,2193.42 1019.87,2194.32"/>
        <lane id=":118_0_4" index="4" speed="24.60" length="9.75" shape="1030.01,2192.31 1026.68,2192.12 1024.38,2191.35 1022.11,2190.80 1018.91,2191.27"/>
    </edge>
    <edge id=":119_0" function="internal">
        <lane id=":119_0_0" index="0" speed="19.01" length="16.14" shape="1415.19,2172.89 1412.02,2171.37 1408.99,2169.96 1405.42,2169.04 1400.62,2168.98"/>
        <lane id=":119_0_1" index="1" speed="19.01" length="16.14" shape="1415.19,2172.89 1412.08,2170.86 1409.11,2168.34 1405.47,2166.32 1400.33,2165.79"/>
    </edge>
    <edge id=":119_2" function="internal">
        <lane id=":119_2_0" index="0" speed="24.60" length="15.47" shape="1415.99,2167.96 1400.62,2168.98"/>
        <lane id=":119_2_1" index="1" speed="24.60" length="15.47" shape="1415.75,2164.77 1400.33,2165.79"/>
        <lane id=":119_2_2" index="2" speed="24.60" length="15.47" shape="1415.50,2161.58 1400.05,2162.60"/>
        <lane id=":119_2_3" index="3" speed="24.60" length="15.47" shape="1415.26,2158.39 1399.77,2159.42"/>
    </edge>
    <edge id=":12_0" function="internal">
        <lane id=":12_0_0" index="0" speed="3.65" length="4.67" shape="13752.99,13798.93 13752.35,13800.22 13751.60,13800.72 13750.76,13800.42 13749.81,13799.33"/>
    </edge>
    <edge id=":120_0" function="internal">
        <lane id=":120_0_0" index="0" speed="19.01" length="13.93" shape="2121.58,2114.97 2117.26,2115.70 2114.13,2116.66 2111.42,2117.83 2108.38,2119.18"/>
    </edge>
    <edge id=":120_1" function="internal">
        <lane id=":120_1_0" index="0" speed="24.60" length="14.06" shape="2121.58,2114.97 2117.37,2115.23 2114.48,2115.03 2111.58,2114.78 2107.36,2114.88"/>
        <lane id=":120_1_1" index="1" speed="24.60" length="14.06" shape="2121.20,2111.79 2117.04,2112.04 2114.17,2111.84 2111.29,2111.59 2107.11,2111.69"/>
        <lane id=":120_1_2" index="2" speed="24.60" length="14.06" shape="2120.83,2108.61 2116.70,2108.86 2113.86,2108.66 2111.01,2108.41 2106.87,2108.50"/>
        <lane id=":120_1_3" index="3" speed="24.60" length="14.06" shape="2120.46,2105.43 2116.37,2105.68 2113.55,2105.47 2110.73,2105.22 2106.62,2105.31"/>
    </edge>
    <edge id=":121_0" function="internal">
        <lane id=":121_0_0" index="0" speed="11.39" length="3.35" shape="2784.37,2035.83 2782.96,2036.83 2781.90,2037.40 2780.74,2037.71 2779.02,2037.94"/>
        <lane id=":121_0_1" index="1" speed="9.69" length="3.35" shape="2782.47,2033.25 2781.47,2033.97 2780.71,2034.38 2779.88,2034.60 2778.65,2034.77"/>
        <lane id=":121_0_2" index="2" speed="7.62" length="3.35" shape="2780.57,2030.68 2779.97,2031.11 2779.51,2031.36 2779.01,2031.49 2778.28,2031.59"/>
        <lane id=":121_0_3" index="3" speed="24.60" length="3.35" shape="2778.67,2028.11 2778.47,2028.25 2778.32,2028.33 2778.15,2028.38 2777.91,2028.41"/>
    </edge>
    <edge id=":122_0" function="internal">
        <lane id=":122_0_0" index="0" speed="24.60" length="52.01" shape="3218.75,1738.36 3205.27,1740.32 3193.48,1741.47 3182.35,1744.08 3170.83,1750.38"/>
        <lane id=":122_0_1" index="1" speed="24.60" length="52.01" shape="3218.08,1735.23 3204.41,1737.28 3192.20,1738.62 3180.64,1741.42 3168.92,1747.81"/>
        <lane id=":122_0_2" index="2" speed="24.60" length="52.01" shape="3217.42,1732.10 3203.55,1734.23 3190.92,1735.77 3178.93,1738.75 3167.02,1745.24"/>
        <lane id=":122_0_3" index="3" speed="24.60" length="52.01" shape="3216.75,1728.97 3202.69,1731.19 3189.63,1732.92 3177.23,1736.09 3165.12,1742.66"/>
    </edge>
    <edge id=":122_4" function="internal">
        <lane id=":122_4_0" index="0" speed="19.01" length="53.43" shape="3215.90,1725.58 3208.50,1727.57 3195.69,1731.48 3180.77,1737.35 3167.02,1745.24"/>
        <lane id=":122_4_1" index="1" speed="19.01" length="53.43" shape="3215.90,1725.58 3208.20,1727.17 3194.74,1730.19 3179.17,1735.18 3165.12,1742.66"/>
    </edge>
    <edge id=":123_0" function="internal">
        <lane id=":123_0_0" index="0" speed="24.60" length="63.22" shape="4072.88,1557.72 4057.68,1559.00 4042.27,1562.17 4026.94,1566.13 4011.98,1569.77"/>
        <lane id=":123_0_1" index="1" speed="24.60" length="63.22" shape="4072.89,1554.52 4057.58,1555.81 4041.94,1559.00 4026.38,1562.99 4011.32,1566.64"/>
        <lane id=":123_0_2" index="2" speed="24.60" length="63.22" shape="4072.90,1551.32 4057.49,1552.62 4041.61,1555.84 4025.82,1559.84 4010.65,1563.51"/>
        <lane id=":123_0_3" index="3" speed="24.60" length="63.22" shape="4072.91,1548.12 4057.39,1549.43 4041.28,1552.67 4025.26,1556.70 4009.99,1560.38"/>
    </edge>
    <edge id=":123_4" function="internal">
        <lane id=":123_4_0" index="0" speed="19.01" length="64.21" shape="4072.91,1548.12 4055.24,1549.38 4035.49,1552.26 4018.57,1555.29 4009.37,1557.00"/>
    </edge>
    <edge id=":124_0" function="internal">
        <lane id=":124_0_0" index="0" speed="19.01" length="11.74" shape="4552.11,1549.79 4549.62,1550.92 4548.52,1554.05 4547.22,1557.30 4544.13,1558.80"/>
        <lane id=":124_0_1" index="1" speed="19.01" length="11.74" shape="4552.11,1549.79 4549.49,1550.42 4548.14,1552.45 4546.77,1554.60 4544.14,1555.60"/>
    </edge>
    <edge id=":124_2" function="internal">
        <lane id=":124_2_0" index="0" speed="24.60" length="7.86" shape="4551.89,1558.88 4544.13,1558.80"/>
        <lane id=":124_2_1" index="1" speed="24.60" length="7.86" shape="4551.96,1555.68 4544.14,1555.60"/>
        <lane id=":124_2_2" index="2" speed="24.60" length="7.86" shape="4552.04,1552.48 4544.14,1552.40"/>
        <lane id=":124_2_3" index="3" speed="24.60" length="7.86" shape="4552.12,1549.28 4544.15,1549.20"/>
    </edge>
    <edge id=":125_0" function="internal">
        <lane id=":125_0_0" index="0" speed="5.46" length="9.97" shape="5110.44,1567.72 5107.22,1568.04 5105.80,1569.05 5106.18,1570.75 5108.36,1573.15"/>
    </edge>
    <edge id=":125_1" function="internal">
        <lane id=":125_1_0" index="0" speed="24.60" length="12.61" shape="5110.44,1567.72 5097.78,1567.76"/>
        <lane id=":125_1_1" index="1" speed="24.60" length="12.61" shape="5110.46,1564.52 5097.83,1564.56"/>
        <lane id=":125_1_2" index="2" speed="24.60" length="12.61" shape="5110.48,1561.32 5097.88,1561.36"/>
        <lane id=":125_1_3" index="3" speed="24.60" length="12.61" shape="5110.50,1558.12 5097.94,1558.16"/>
    </edge>