<routes>
  <flow id="1-2" begin="0" end="3600" from="1_117" to="62_2" number="1365"/>
  <flow id="1-3" begin="0" end="3600" from="1_117" to="75_3" number="407"/>
  <flow id="1-4" begin="0" end="3600" from="1_117" to="234_4" number="861"/>
  <flow id="1-5" begin="0" end="3600" from="1_117" to="118_5" number="354"/>
  <flow id="1-6" begin="0" end="3600" from="1_117" to="166_6" number="545"/>
  <flow id="1-7" begin="0" end="3600" from="1_117" to="214_7" number="431"/>
  <flow id="1-8" begin="0" end="3600" from="1_117" to="411_8" number="1"/>
  <flow id="1-9" begin="0" end="3600" from="1_117" to="379_9" number="56"/>
  <flow id="1-10" begin="0" end="3600" from="1_117" to="338_10" number="75"/>
  <flow id="1-11" begin="0" end="3600" from="1_117" to="309_11" number="1"/>
  <flow id="1-12" begin="0" end="3600" from="1_117" to="275_12" number="37"/>
  <flow id="1-13" begin="0" end="3600" from="1_117" to="262_13" number="48"/>
  <flow id="1-14" begin="0" end="3600" from="1_117" to="257_14" number="1"/>
  <flow id="1-15" begin="0" end="3600" from="1_117" to="254_15" number="185"/>
  <flow id="1-16" begin="0" end="3600" from="1_117" to="263_16" number="12"/>
  <flow id="1-17" begin="0" end="3600" from="1_117" to="276_17" number="81"/>
  <flow id="1-18" begin="0" end="3600" from="1_117" to="322_18" number="126"/>
  <flow id="1-19" begin="0" end="3600" from="1_117" to="364_19" number="67"/>
  <flow id="1-20" begin="0" end="3600" from="1_117" to="397_20" number="382"/>
  <flow id="1-21" begin="0" end="3600" from="1_117" to="412_21" number="101"/>
  <flow id="1-22" begin="0" end="3600" from="1_117" to="414_22" number="71"/>
  <flow id="1-23" begin="0" end="3600" from="1_117" to="416_23" number="25"/>
  <flow id="1-24" begin="0" end="3600" from="1_117" to="266_24" number="21"/>
  <flow id="1-25" begin="0" end="3600" from="1_117" to="268_25" number="665"/>
  <flow id="1-26" begin="0" end="3600" from="1_117" to="273_26" number="29"/>
  <flow id="1-27" begin="0" end="3600" from="1_117" to="302_27" number="18"/>
  <flow id="1-28" begin="0" end="3600" from="1_117" to="303_28" number="75"/>
  <flow id="1-29" begin="0" end="3600" from="1_117" to="308_29" number="139"/>
  <flow id="1-30" begin="0" end="3600" from="1_117" to="340_30" number="119"/>
  <flow id="1-31" begin="0" end="3600" from="1_117" to="329_31" number="295"/>
  <flow id="1-32" begin="0" end="3600" from="1_117" to="332_32" number="85"/>
  <flow id="1-33" begin="0" end="3600" from="1_117" to="337_33" number="74"/>
  <flow id="1-34" begin="0" end="3600" from="1_117" to="369_34" number="96"/>
  <flow id="1-35" begin="0" end="3600" from="1_117" to="373_35" number="53"/>
  <flow id="1-36" begin="0" end="3600" from="1_117" to="378_36" number="37"/>
  <flow id="1-37" begin="0" end="3600" from="1_117" to="401_37" number="13"/>
  <flow id="1-38" begin="0" end="3600" from="1_117" to="406_38" number="107"/>
  <flow id="2-1" begin="0" end="3600" from="2_87" to="88_1" number="1171"/>
  <flow id="2-3" begin="0" end="3600" from="2_87" to="75_3" number="608"/>
  <flow id="2-4" begin="0" end="3600" from="2_87" to="234_4" number="1271"/>
  <flow id="2-5" begin="0" end="3600" from="2_87" to="118_5" number="542"/>
  <flow id="2-6" begin="0" end="3600" from="2_87" to="166_6" number="808"/>
  <flow id="2-7" begin="0" end="3600" from="2_87" to="214_7" number="629"/>
  <flow id="2-8" begin="0" end="3600" from="2_87" to="411_8" number="1"/>
  <flow id="2-9" begin="0" end="3600" from="2_87" to="379_9" number="74"/>
  <flow id="2-10" begin="0" end="3600" from="2_87" to="338_10" number="87"/>
  <flow id="2-11" begin="0" end="3600" from="2_87" to="309_11" number="1"/>
  <flow id="2-12" begin="0" end="3600" from="2_87" to="275_12" number="48"/>
  <flow id="2-13" begin="0" end="3600" from="2_87" to="262_13" number="63"/>
  <flow id="2-14" begin="0" end="3600" from="2_87" to="257_14" number="1"/>
  <flow id="2-15" begin="0" end="3600" from="2_87" to="254_15" number="566"/>
  <flow id="2-16" begin="0" end="3600" from="2_87" to="263_16" number="22"/>
  <flow id="2-17" begin="0" end="3600" from="2_87" to="276_17" number="107"/>
  <flow id="2-18" begin="0" end="3600" from="2_87" to="322_18" number="213"/>
  <flow id="2-19" begin="0" end="3600" from="2_87" to="364_19" number="101"/>
  <flow id="2-20" begin="0" end="3600" from="2_87" to="397_20" number="511"/>
  <flow id="2-21" begin="0" end="3600" from="2_87" to="412_21" number="156"/>
  <flow id="2-22" begin="0" end="3600" from="2_87" to="414_22" number="105"/>
  <flow id="2-23" begin="0" end="3600" from="2_87" to="416_23" number="39"/>
  <flow id="2-24" begin="0" end="3600" from="2_87" to="266_24" number="47"/>
  <flow id="2-25" begin="0" end="3600" from="2_87" to="268_25" number="942"/>
  <flow id="2-26" begin="0" end="3600" from="2_87" to="273_26" number="51"/>
  <flow id="2-27" begin="0" end="3600" from="2_87" to="302_27" number="27"/>
  <flow id="2-28" begin="0" end="3600" from="2_87" to="303_28" number="111"/>
  <flow id="2-29" begin="0" end="3600" from="2_87" to="308_29" number="194"/>
  <flow id="2-30" begin="0" end="3600" from="2_87" to="340_30" number="194"/>
  <flow id="2-31" begin="0" end="3600" from="2_87" to="329_31" number="329"/>
  <flow id="2-32" begin="0" end="3600" from="2_87" to="332_32" number="95"/>
  <flow id="2-33" begin="0" end="3600" from="2_87" to="337_33" number="79"/>
  <flow id="2-34" begin="0" end="3600" from="2_87" to="369_34" number="134"/>
  <flow id="2-35" begin="0" end="3600" from="2_87" to="373_35" number="81"/>
  <flow id="2-36" begin="0" end="3600" from="2_87" to="378_36" number="55"/>
  <flow id="2-37" begin="0" end="3600" from="2_87" to="401_37" number="19"/>
  <flow id="2-38" begin="0" end="3600" from="2_87" to="406_38" number="166"/>
  <flow id="3-1" begin="0" end="3600" from="3_74" to="88_1" number="721"/>
  <flow id="3-2" begin="0" end="3600" from="3_74" to="62_2" number="1237"/>
  <flow id="3-4" begin="0" end="3600" from="3_74" to="234_4" number="1107"/>
  <flow id="3-5" begin="0" end="3600" from="3_74" to="118_5" number="386"/>
  <flow id="3-6" begin="0" end="3600" from="3_74" to="166_6" number="582"/>
  <flow id="3-7" begin="0" end="3600" from="3_74" to="214_7" number="457"/>
  <flow id="3-8" begin="0" end="3600" from="3_74" to="411_8" number="1"/>
  <flow id="3-9" begin="0" end="3600" from="3_74" to="379_9" number="57"/>
  <flow id="3-10" begin="0" end="3600" from="3_74" to="338_10" number="62"/>
  <flow id="3-11" begin="0" end="3600" from="3_74" to="309_11" number="1"/>
  <flow id="3-12" begin="0" end="3600" from="3_74" to="275_12" number="33"/>
  <flow id="3-13" begin="0" end="3600" from="3_74" to="262_13" number="37"/>
  <flow id="3-14" begin="0" end="3600" from="3_74" to="257_14" number="1"/>
  <flow id="3-15" begin="0" end="3600" from="3_74" to="254_15" number="241"/>
  <flow id="3-16" begin="0" end="3600" from="3_74" to="263_16" number="15"/>
  <flow id="3-17" begin="0" end="3600" from="3_74" to="276_17" number="102"/>
  <flow id="3-18" begin="0" end="3600" from="3_74" to="322_18" number="159"/>
  <flow id="3-19" begin="0" end="3600" from="3_74" to="364_19" number="71"/>
  <flow id="3-20" begin="0" end="3600" from="3_74" to="397_20" number="385"/>
  <flow id="3-21" begin="0" end="3600" from="3_74" to="412_21" number="109"/>
  <flow id="3-22" begin="0" end="3600" from="3_74" to="414_22" number="78"/>
  <flow id="3-23" begin="0" end="3600" from="3_74" to="416_23" number="25"/>
  <flow id="3-24" begin="0" end="3600" from="3_74" to="266_24" number="32"/>
  <flow id="3-25" begin="0" end="3600" from="3_74" to="268_25" number="687"/>
  <flow id="3-26" begin="0" end="3600" from="3_74" to="273_26" number="27"/>
  <flow id="3-27" begin="0" end="3600" from="3_74" to="302_27" number="21"/>
  <flow id="3-28" begin="0" end="3600" from="3_74" to="303_28" number="82"/>
  <flow id="3-29" begin="0" end="3600" from="3_74" to="308_29" number="109"/>
  <flow id="3-30" begin="0" end="3600" from="3_74" to="340_30" number="132"/>
  <flow id="3-31" begin="0" end="3600" from="3_74" to="329_31" number="234"/>
  <flow id="3-32" begin="0" end="3600" from="3_74" to="332_32" number="69"/>
  <flow id="3-33" begin="0" end="3600" from="3_74" to="337_33" number="61"/>
  <flow id="3-34" begin="0" end="3600" from="3_74" to="369_34" number="101"/>
  <flow id="3-35" begin="0" end="3600" from="3_74" to="373_35" number="58"/>
  <flow id="3-36" begin="0" end="3600" from="3_74" to="378_36" number="43"/>
  <flow id="3-37" begin="0" end="3600" from="3_74" to="401_37" number="13"/>
  <flow id="3-38" begin="0" end="3600" from="3_74" to="406_38" number="116"/>
  <flow id="4-1" begin="0" end="3600" from="4_233" to="88_1" number="1222"/>
  <flow id="4-2" begin="0" end="3600" from="4_233" to="62_2" number="2106"/>
  <flow id="4-3" begin="0" end="3600" from="4_233" to="75_3" number="938"/>
  <flow id="4-5" begin="0" end="3600" from="4_233" to="118_5" number="665"/>
  <flow id="4-6" begin="0" end="3600" from="4_233" to="166_6" number="988"/>
  <flow id="4-7" begin="0" end="3600" from="4_233" to="214_7" number="769"/>
  <flow id="4-8" begin="0" end="3600" from="4_233" to="411_8" number="1"/>
  <flow id="4-9" begin="0" end="3600" from="4_233" to="379_9" number="91"/>
  <flow id="4-10" begin="0" end="3600" from="4_233" to="338_10" number="108"/>
  <flow id="4-11" begin="0" end="3600" from="4_233" to="309_11" number="1"/>
  <flow id="4-12" begin="0" end="3600" from="4_233" to="275_12" number="47"/>
  <flow id="4-13" begin="0" end="3600" from="4_233" to="262_13" number="61"/>
  <flow id="4-14" begin="0" end="3600" from="4_233" to="257_14" number="1"/>
  <flow id="4-15" begin="0" end="3600" from="4_233" to="254_15" number="651"/>
  <flow id="4-16" begin="0" end="3600" from="4_233" to="263_16" number="27"/>
  <flow id="4-17" begin="0" end="3600" from="4_233" to="276_17" number="166"/>
  <flow id="4-18" begin="0" end="3600" from="4_233" to="322_18" number="297"/>
  <flow id="4-19" begin="0" end="3600" from="4_233" to="364_19" number="155"/>
  <flow id="4-20" begin="0" end="3600" from="4_233" to="397_20" number="601"/>
  <flow id="4-21" begin="0" end="3600" from="4_233" to="412_21" number="191"/>
  <flow id="4-22" begin="0" end="3600" from="4_233" to="414_22" number="132"/>
  <flow id="4-23" begin="0" end="3600" from="4_233" to="416_23" number="37"/>
  <flow id="4-24" begin="0" end="3600" from="4_233" to="266_24" number="62"/>
  <flow id="4-25" begin="0" end="3600" from="4_233" to="268_25" number="881"/>
  <flow id="4-26" begin="0" end="3600" from="4_233" to="273_26" number="53"/>
  <flow id="4-27" begin="0" end="3600" from="4_233" to="302_27" number="36"/>
  <flow id="4-28" begin="0" end="3600" from="4_233" to="303_28" number="107"/>
  <flow id="4-29" begin="0" end="3600" from="4_233" to="308_29" number="179"/>
  <flow id="4-30" begin="0" end="3600" from="4_233" to="340_30" number="301"/>
  <flow id="4-31" begin="0" end="3600" from="4_233" to="329_31" number="508"/>
  <flow id="4-32" begin="0" end="3600" from="4_233" to="332_32" number="119"/>
  <flow id="4-33" begin="0" end="3600" from="4_233" to="337_33" number="94"/>
  <flow id="4-34" begin="0" end="3600" from="4_233" to="369_34" number="167"/>
  <flow id="4-35" begin="0" end="3600" from="4_233" to="373_35" number="98"/>
  <flow id="4-36" begin="0" end="3600" from="4_233" to="378_36" number="74"/>
  <flow id="4-37" begin="0" end="3600" from="4_233" to="401_37" number="21"/>
  <flow id="4-38" begin="0" end="3600" from="4_233" to="406_38" number="199"/>
  <flow id="5-1" begin="0" end="3600" from="5_165" to="88_1" number="243"/>
  <flow id="5-2" begin="0" end="3600" from="5_165" to="62_2" number="419"/>
  <flow id="5-3" begin="0" end="3600" from="5_165" to="75_3" number="145"/>
  <flow id="5-4" begin="0" end="3600" from="5_165" to="234_4" number="311"/>
  <flow id="5-6" begin="0" end="3600" from="5_165" to="166_6" number="195"/>
  <flow id="5-7" begin="0" end="3600" from="5_165" to="214_7" number="158"/>
  <flow id="5-8" begin="0" end="3600" from="5_165" to="411_8" number="1"/>
  <flow id="5-9" begin="0" end="3600" from="5_165" to="379_9" number="19"/>
  <flow id="5-10" begin="0" end="3600" from="5_165" to="338_10" number="21"/>
  <flow id="5-11" begin="0" end="3600" from="5_165" to="309_11" number="1"/>
  <flow id="5-12" begin="0" end="3600" from="5_165" to="275_12" number="6"/>
  <flow id="5-13" begin="0" end="3600" from="5_165" to="262_13" number="13"/>
  <flow id="5-14" begin="0" end="3600" from="5_165" to="257_14" number="1"/>
  <flow id="5-15" begin="0" end="3600" from="5_165" to="254_15" number="71"/>
  <flow id="5-16" begin="0" end="3600" from="5_165" to="263_16" number="4"/>
  <flow id="5-17" begin="0" end="3600" from="5_165" to="276_17" number="31"/>
  <flow id="5-18" begin="0" end="3600" from="5_165" to="322_18" number="46"/>
  <flow id="5-19" begin="0" end="3600" from="5_165" to="364_19" number="31"/>
  <flow id="5-20" begin="0" end="3600" from="5_165" to="397_20" number="166"/>
  <flow id="5-21" begin="0" end="3600" from="5_165" to="412_21" number="48"/>
  <flow id="5-22" begin="0" end="3600" from="5_165" to="414_22" number="24"/>
  <flow id="5-23" begin="0" end="3600" from="5_165" to="416_23" number="15"/>
  <flow id="5-24" begin="0" end="3600" from="5_165" to="266_24" number="7"/>
  <flow id="5-25" begin="0" end="3600" from="5_165" to="268_25" number="184"/>
  <flow id="5-26" begin="0" end="3600" from="5_165" to="273_26" number="7"/>
  <flow id="5-27" begin="0" end="3600" from="5_165" to="302_27" number="5"/>
  <flow id="5-28" begin="0" end="3600" from="5_165" to="303_28" number="22"/>
  <flow id="5-29" begin="0" end="3600" from="5_165" to="308_29" number="41"/>
  <flow id="5-30" begin="0" end="3600" from="5_165" to="340_30" number="57"/>
  <flow id="5-31" begin="0" end="3600" from="5_165" to="329_31" number="109"/>
  <flow id="5-32" begin="0" end="3600" from="5_165" to="332_32" number="24"/>
  <flow id="5-33" begin="0" end="3600" from="5_165" to="337_33" number="22"/>
  <flow id="5-34" begin="0" end="3600" from="5_165" to="369_34" number="45"/>
  <flow id="5-35" begin="0" end="3600" from="5_165" to="373_35" number="21"/>
  <flow id="5-36" begin="0" end="3600" from="5_165" to="378_36" number="11"/>
  <flow id="5-37" begin="0" end="3600" from="5_165" to="401_37" number="7"/>
  <flow id="5-38" begin="0" end="3600" from="5_165" to="406_38" number="38"/>
  <flow id="6-1" begin="0" end="3600" from="6_213" to="88_1" number="637"/>
  <flow id="6-2" begin="0" end="3600" from="6_213" to="62_2" number="1089"/>
  <flow id="6-3" begin="0" end="3600" from="6_213" to="75_3" number="381"/>
  <flow id="6-4" begin="0" end="3600" from="6_213" to="234_4" number="812"/>
  <flow id="6-5" begin="0" end="3600" from="6_213" to="118_5" number="338"/>
  <flow id="6-7" begin="0" end="3600" from="6_213" to="214_7" number="477"/>
  <flow id="6-8" begin="0" end="3600" from="6_213" to="411_8" number="1"/>
  <flow id="6-9" begin="0" end="3600" from="6_213" to="379_9" number="73"/>
  <flow id="6-10" begin="0" end="3600" from="6_213" to="338_10" number="54"/>
  <flow id="6-11" begin="0" end="3600" from="6_213" to="309_11" number="1"/>
  <flow id="6-12" begin="0" end="3600" from="6_213" to="275_12" number="32"/>
  <flow id="6-13" begin="0" end="3600" from="6_213" to="262_13" number="35"/>
  <flow id="6-14" begin="0" end="3600" from="6_213" to="257_14" number="1"/>
  <flow id="6-15" begin="0" end="3600" from="6_213" to="254_15" number="179"/>
  <flow id="6-16" begin="0" end="3600" from="6_213" to="263_16" number="11"/>
  <flow id="6-17" begin="0" end="3600" from="6_213" to="276_17" number="79"/>
  <flow id="6-18" begin="0" end="3600" from="6_213" to="322_18" number="131"/>
  <flow id="6-19" begin="0" end="3600" from="6_213" to="364_19" number="62"/>
  <flow id="6-20" begin="0" end="3600" from="6_213" to="397_20" number="366"/>
  <flow id="6-21" begin="0" end="3600" from="6_213" to="412_21" number="96"/>
  <flow id="6-22" begin="0" end="3600" from="6_213" to="414_22" number="88"/>
  <flow id="6-23" begin="0" end="3600" from="6_213" to="416_23" number="27"/>
  <flow id="6-24" begin="0" end="3600" from="6_213" to="266_24" number="18"/>
  <flow id="6-25" begin="0" end="3600" from="6_213" to="268_25" number="491"/>
  <flow id="6-26" begin="0" end="3600" from="6_213" to="273_26" number="21"/>
  <flow id="6-27" begin="0" end="3600" from="6_213" to="302_27" number="14"/>
  <flow id="6-28" begin="0" end="3600" from="6_213" to="303_28" number="56"/>
  <flow id="6-29" begin="0" end="3600" from="6_213" to="308_29" number="101"/>
  <flow id="6-30" begin="0" end="3600" from="6_213" to="340_30" number="108"/>
  <flow id="6-31" begin="0" end="3600" from="6_213" to="329_31" number="281"/>
  <flow id="6-32" begin="0" end="3600" from="6_213" to="332_32" number="82"/>
  <flow id="6-33" begin="0" end="3600" from="6_213" to="337_33" number="72"/>
  <flow id="6-34" begin="0" end="3600" from="6_213" to="369_34" number="88"/>
  <flow id="6-35" begin="0" end="3600" from="6_213" to="373_35" number="67"/>
  <flow id="6-36" begin="0" end="3600" from="6_213" to="378_36" number="47"/>
  <flow id="6-37" begin="0" end="3600" from="6_213" to="401_37" number="13"/>
  <flow id="6-38" begin="0" end="3600" from="6_213" to="406_38" number="132"/>
  <flow id="7-1" begin="0" end="3600" from="7_253" to="88_1" number="682"/>
  <flow id="7-2" begin="0" end="3600" from="7_253" to="62_2" number="1191"/>
  <flow id="7-3" begin="0" end="3600" from="7_253" to="75_3" number="431"/>
  <flow id="7-4" begin="0" end="3600" from="7_253" to="234_4" number="883"/>
  <flow id="7-5" begin="0" end="3600" from="7_253" to="118_5" number="379"/>
  <flow id="7-6" begin="0" end="3600" from="7_253" to="166_6" number="646"/>
  <flow id="7-8" begin="0" end="3600" from="7_253" to="411_8" number="1"/>
  <flow id="7-9" begin="0" end="3600" from="7_253" to="379_9" number="63"/>
  <flow id="7-10" begin="0" end="3600" from="7_253" to="338_10" number="74"/>
  <flow id="7-11" begin="0" end="3600" from="7_253" to="309_11" number="1"/>
  <flow id="7-12" begin="0" end="3600" from="7_253" to="275_12" number="35"/>
  <flow id="7-13" begin="0" end="3600" from="7_253" to="262_13" number="33"/>
  <flow id="7-14" begin="0" end="3600" from="7_253" to="257_14" number="1"/>
  <flow id="7-15" begin="0" end="3600" from="7_253" to="254_15" number="172"/>
  <flow id="7-16" begin="0" end="3600" from="7_253" to="263_16" number="12"/>
  <flow id="7-17" begin="0" end="3600" from="7_253" to="276_17" number="72"/>
  <flow id="7-18" begin="0" end="3600" from="7_253" to="322_18" number="111"/>
  <flow id="7-19" begin="0" end="3600" from="7_253" to="364_19" number="69"/>
  <flow id="7-20" begin="0" end="3600" from="7_253" to="397_20" number="352"/>
  <flow id="7-21" begin="0" end="3600" from="7_253" to="412_21" number="107"/>
  <flow id="7-22" begin="0" end="3600" from="7_253" to="414_22" number="93"/>
  <flow id="7-23" begin="0" end="3600" from="7_253" to="416_23" number="25"/>
  <flow id="7-24" begin="0" end="3600" from="7_253" to="266_24" number="26"/>
  <flow id="7-25" begin="0" end="3600" from="7_253" to="268_25" number="478"/>
  <flow id="7-26" begin="0" end="3600" from="7_253" to="273_26" number="29"/>
  <flow id="7-27" begin="0" end="3600" from="7_253" to="302_27" number="16"/>
  <flow id="7-28" begin="0" end="3600" from="7_253" to="303_28" number="61"/>
  <flow id="7-29" begin="0" end="3600" from="7_253" to="308_29" number="101"/>
  <flow id="7-30" begin="0" end="3600" from="7_253" to="340_30" number="139"/>
  <flow id="7-31" begin="0" end="3600" from="7_253" to="329_31" number="295"/>
  <flow id="7-32" begin="0" end="3600" from="7_253" to="332_32" number="86"/>
  <flow id="7-33" begin="0" end="3600" from="7_253" to="337_33" number="73"/>
  <flow id="7-34" begin="0" end="3600" from="7_253" to="369_34" number="92"/>
  <flow id="7-35" begin="0" end="3600" from="7_253" to="373_35" number="72"/>
  <flow id="7-36" begin="0" end="3600" from="7_253" to="378_36" number="55"/>
  <flow id="7-37" begin="0" end="3600" from="7_253" to="401_37" number="9"/>
  <flow id="7-38" begin="0" end="3600" from="7_253" to="406_38" number="156"/>
  <flow id="8-1" begin="0" end="3600" from="8_411" to="88_1" number="44"/>
  <flow id="8-2" begin="0" end="3600" from="8_411" to="62_2" number="95"/>
  <flow id="8-3" begin="0" end="3600" from="8_411" to="75_3" number="1"/>
  <flow id="8-4" begin="0" end="3600" from="8_411" to="234_4" number="28"/>
  <flow id="8-5" begin="0" end="3600" from="8_411" to="118_5" number="26"/>
  <flow id="8-6" begin="0" end="3600" from="8_411" to="166_6" number="33"/>
  <flow id="8-7" begin="0" end="3600" from="8_411" to="214_7" number="35"/>
  <flow id="8-9" begin="0" end="3600" from="8_411" to="379_9" number="13"/>
  <flow id="8-10" begin="0" end="3600" from="8_411" to="338_10" number="1"/>
  <flow id="8-11" begin="0" end="3600" from="8_411" to="309_11" number="1"/>
  <flow id="8-12" begin="0" end="3600" from="8_411" to="275_12" number="1"/>
  <flow id="8-13" begin="0" end="3600" from="8_411" to="262_13" number="7"/>
  <flow id="8-14" begin="0" end="3600" from="8_411" to="257_14" number="1"/>
  <flow id="8-15" begin="0" end="3600" from="8_411" to="254_15" number="49"/>
  <flow id="8-16" begin="0" end="3600" from="8_411" to="263_16" number="2"/>
  <flow id="8-17" begin="0" end="3600" from="8_411" to="276_17" number="23"/>
  <flow id="8-18" begin="0" end="3600" from="8_411" to="322_18" number="31"/>
  <flow id="8-19" begin="0" end="3600" from="8_411" to="364_19" number="14"/>
  <flow id="8-20" begin="0" end="3600" from="8_411" to="397_20" number="63"/>
  <flow id="8-21" begin="0" end="3600" from="8_411" to="412_21" number="12"/>
  <flow id="8-22" begin="0" end="3600" from="8_411" to="414_22" number="7"/>
  <flow id="8-23" begin="0" end="3600" from="8_411" to="416_23" number="1"/>
  <flow id="8-24" begin="0" end="3600" from="8_411" to="266_24" number="1"/>
  <flow id="8-25" begin="0" end="3600" from="8_411" to="268_25" number="45"/>
  <flow id="8-26" begin="0" end="3600" from="8_411" to="273_26" number="1"/>
  <flow id="8-27" begin="0" end="3600" from="8_411" to="302_27" number="1"/>
  <flow id="8-28" begin="0" end="3600" from="8_411" to="303_28" number="6"/>
  <flow id="8-29" begin="0" end="3600" from="8_411" to="308_29" number="17"/>
  <flow id="8-30" begin="0" end="3600" from="8_411" to="340_30" number="17"/>
  <flow id="8-31" begin="0" end="3600" from="8_411" to="329_31" number="51"/>
  <flow id="8-32" begin="0" end="3600" from="8_411" to="332_32" number="7"/>
  <flow id="8-33" begin="0" end="3600" from="8_411" to="337_33" number="19"/>
  <flow id="8-34" begin="0" end="3600" from="8_411" to="369_34" number="5"/>
  <flow id="8-35" begin="0" end="3600" from="8_411" to="373_35" number="6"/>
  <flow id="8-36" begin="0" end="3600" from="8_411" to="378_36" number="1"/>
  <flow id="8-37" begin="0" end="3600" from="8_411" to="401_37" number="1"/>
  <flow id="8-38" begin="0" end="3600" from="8_411" to="406_38" number="41"/>
  <flow id="9-1" begin="0" end="3600" from="9_379" to="88_1" number="198"/>
  <flow id="9-2" begin="0" end="3600" from="9_379" to="62_2" number="293"/>
  <flow id="9-3" begin="0" end="3600" from="9_379" to="75_3" number="132"/>
  <flow id="9-4" begin="0" end="3600" from="9_379" to="234_4" number="201"/>
  <flow id="9-5" begin="0" end="3600" from="9_379" to="118_5" number="75"/>
  <flow id="9-6" begin="0" end="3600" from="9_379" to="166_6" number="157"/>
  <flow id="9-7" begin="0" end="3600" from="9_379" to="214_7" number="99"/>
  <flow id="9-8" begin="0" end="3600" from="9_379" to="411_8" number="1"/>
  <flow id="9-10" begin="0" end="3600" from="9_379" to="338_10" number="49"/>
  <flow id="9-11" begin="0" end="3600" from="9_379" to="309_11" number="1"/>
  <flow id="9-12" begin="0" end="3600" from="9_379" to="275_12" number="7"/>
  <flow id="9-13" begin="0" end="3600" from="9_379" to="262_13" number="3"/>
  <flow id="9-14" begin="0" end="3600" from="9_379" to="257_14" number="1"/>
  <flow id="9-15" begin="0" end="3600" from="9_379" to="254_15" number="1"/>
  <flow id="9-16" begin="0" end="3600" from="9_379" to="263_16" number="3"/>
  <flow id="9-17" begin="0" end="3600" from="9_379" to="276_17" number="21"/>
  <flow id="9-18" begin="0" end="3600" from="9_379" to="322_18" number="38"/>
  <flow id="9-19" begin="0" end="3600" from="9_379" to="364_19" number="17"/>
  <flow id="9-20" begin="0" end="3600" from="9_379" to="397_20" number="97"/>
  <flow id="9-21" begin="0" end="3600" from="9_379" to="412_21" number="58"/>
  <flow id="9-22" begin="0" end="3600" from="9_379" to="414_22" number="51"/>
  <flow id="9-23" begin="0" end="3600" from="9_379" to="416_23" number="26"/>
  <flow id="9-24" begin="0" end="3600" from="9_379" to="266_24" number="21"/>
  <flow id="9-25" begin="0" end="3600" from="9_379" to="268_25" number="236"/>
  <flow id="9-26" begin="0" end="3600" from="9_379" to="273_26" number="26"/>
  <flow id="9-27" begin="0" end="3600" from="9_379" to="302_27" number="7"/>
  <flow id="9-28" begin="0" end="3600" from="9_379" to="303_28" number="23"/>
  <flow id="9-29" begin="0" end="3600" from="9_379" to="308_29" number="42"/>
  <flow id="9-30" begin="0" end="3600" from="9_379" to="340_30" number="63"/>
  <flow id="9-31" begin="0" end="3600" from="9_379" to="329_31" number="59"/>
  <flow id="9-32" begin="0" end="3600" from="9_379" to="332_32" number="43"/>
  <flow id="9-33" begin="0" end="3600" from="9_379" to="337_33" number="8"/>
  <flow id="9-34" begin="0" end="3600" from="9_379" to="369_34" number="41"/>
  <flow id="9-35" begin="0" end="3600" from="9_379" to="373_35" number="31"/>
  <flow id="9-36" begin="0" end="3600" from="9_379" to="378_36" number="43"/>
  <flow id="9-37" begin="0" end="3600" from="9_379" to="401_37" number="7"/>
  <flow id="9-38" begin="0" end="3600" from="9_379" to="406_38" number="44"/>
  <flow id="10-1" begin="0" end="3600" from="10_338" to="88_1" number="12"/>
  <flow id="10-2" begin="0" end="3600" from="10_338" to="62_2" number="21"/>
  <flow id="10-3" begin="0" end="3600" from="10_338" to="75_3" number="9"/>
  <flow id="10-4" begin="0" end="3600" from="10_338" to="234_4" number="13"/>
  <flow id="10-5" begin="0" end="3600" from="10_338" to="118_5" number="5"/>
  <flow id="10-6" begin="0" end="3600" from="10_338" to="166_6" number="11"/>
  <flow id="10-7" begin="0" end="3600" from="10_338" to="214_7" number="5"/>
  <flow id="10-8" begin="0" end="3600" from="10_338" to="411_8" number="1"/>
  <flow id="10-9" begin="0" end="3600" from="10_338" to="379_9" number="1"/>
  <flow id="10-11" begin="0" end="3600" from="10_338" to="309_11" number="1"/>
  <flow id="10-12" begin="0" end="3600" from="10_338" to="275_12" number="1"/>
  <flow id="10-13" begin="0" end="3600" from="10_338" to="262_13" number="1"/>
  <flow id="10-14" begin="0" end="3600" from="10_338" to="257_14" number="1"/>
  <flow id="10-15" begin="0" end="3600" from="10_338" to="254_15" number="1"/>
  <flow id="10-16" begin="0" end="3600" from="10_338" to="263_16" number="1"/>
  <flow id="10-17" begin="0" end="3600" from="10_338" to="276_17" number="1"/>
  <flow id="10-18" begin="0" end="3600" from="10_338" to="322_18" number="2"/>
  <flow id="10-19" begin="0" end="3600" from="10_338" to="364_19" number="1"/>
  <flow id="10-20" begin="0" end="3600" from="10_338" to="397_20" number="1"/>
  <flow id="10-21" begin="0" end="3600" from="10_338" to="412_21" number="4"/>
  <flow id="10-22" begin="0" end="3600" from="10_338" to="414_22" number="3"/>
  <flow id="10-23" begin="0" end="3600" from="10_338" to="416_23" number="1"/>
  <flow id="10-24" begin="0" end="3600" from="10_338" to="266_24" number="2"/>
  <flow id="10-25" begin="0" end="3600" from="10_338" to="268_25" number="12"/>
  <flow id="10-26" begin="0" end="3600" from="10_338" to="273_26" number="2"/>
  <flow id="10-27" begin="0" end="3600" from="10_338" to="302_27" number="1"/>
  <flow id="10-28" begin="0" end="3600" from="10_338" to="303_28" number="2"/>
  <flow id="10-29" begin="0" end="3600" from="10_338" to="308_29" number="2"/>
  <flow id="10-30" begin="0" end="3600" from="10_338" to="340_30" number="4"/>
  <flow id="10-31" begin="0" end="3600" from="10_338" to="329_31" number="3"/>
  <flow id="10-32" begin="0" end="3600" from="10_338" to="332_32" number="3"/>
  <flow id="10-33" begin="0" end="3600" from="10_338" to="337_33" number="1"/>
  <flow id="10-34" begin="0" end="3600" from="10_338" to="369_34" number="2"/>
  <flow id="10-35" begin="0" end="3600" from="10_338" to="373_35" number="2"/>
  <flow id="10-36" begin="0" end="3600" from="10_338" to="378_36" number="2"/>
  <flow id="10-37" begin="0" end="3600" from="10_338" to="401_37" number="1"/>
  <flow id="10-38" begin="0" end="3600" from="10_338" to="406_38" number="3"/>
  <flow id="11-1" begin="0" end="3600" from="11_309" to="88_1" number="35"/>
  <flow id="11-2" begin="0" end="3600" from="11_309" to="62_2" number="58"/>
  <flow id="11-3" begin="0" end="3600" from="11_309" to="75_3" number="22"/>
  <flow id="11-4" begin="0" end="3600" from="11_309" to="234_4" number="45"/>
  <flow id="11-5" begin="0" end="3600" from="11_309" to="118_5" number="12"/>
  <flow id="11-6" begin="0" end="3600" from="11_309" to="166_6" number="14"/>
  <flow id="11-7" begin="0" end="3600" from="11_309" to="214_7" number="21"/>
  <flow id="11-8" begin="0" end="3600" from="11_309" to="411_8" number="1"/>
  <flow id="11-9" begin="0" end="3600" from="11_309" to="379_9" number="1"/>
  <flow id="11-10" begin="0" end="3600" from="11_309" to="338_10" number="17"/>
  <flow id="11-12" begin="0" end="3600" from="11_309" to="275_12" number="2"/>
  <flow id="11-13" begin="0" end="3600" from="11_309" to="262_13" number="5"/>
  <flow id="11-14" begin="0" end="3600" from="11_309" to="257_14" number="1"/>
  <flow id="11-15" begin="0" end="3600" from="11_309" to="254_15" number="12"/>
  <flow id="11-16" begin="0" end="3600" from="11_309" to="263_16" number="1"/>
  <flow id="11-17" begin="0" end="3600" from="11_309" to="276_17" number="11"/>