<?xml version="1.0" encoding="UTF-8"?>
<network version="1.0">
  <edges>
    <edge id="1_117" from="1" to="117" speed="24.60" numLanes="5"/>
    <edge id="2_87" from="2" to="87" speed="24.60" numLanes="5"/>
    <edge id="3_74" from="3" to="74" speed="24.60" numLanes="5"/>
    <edge id="4_233" from="4" to="233" speed="24.60" numLanes="5"/>
    <edge id="5_165" from="5" to="165" speed="24.60" numLanes="5"/>
    <edge id="6_213" from="6" to="213" speed="24.60" numLanes="5"/>
    <edge id="7_253" from="7" to="253" speed="24.60" numLanes="5"/>
    <edge id="8_411" from="8" to="411" speed="13.41" numLanes="3"/>
    <edge id="9_379" from="9" to="379" speed="13.41" numLanes="3"/>
    <edge id="9_395" from="9" to="395" speed="13.41" numLanes="3"/>
    <edge id="10_338" from="10" to="338" speed="13.41" numLanes="3"/>
    <edge id="10_362" from="10" to="362" speed="13.41" numLanes="3"/>
    <edge id="11_309" from="11" to="309" speed="13.41" numLanes="3"/>
    <edge id="12_275" from="12" to="275" speed="13.41" numLanes="3"/>
    <edge id="13_262" from="13" to="262" speed="13.41" numLanes="3"/>
    <edge id="14_257" from="14" to="257" speed="13.41" numLanes="3"/>
    <edge id="15_254" from="15" to="254" speed="13.41" numLanes="3"/>
    <edge id="16_263" from="16" to="263" speed="13.41" numLanes="3"/>
    <edge id="17_276" from="17" to="276" speed="13.41" numLanes="3"/>
    <edge id="18_322" from="18" to="322" speed="13.41" numLanes="3"/>
    <edge id="18_348" from="18" to="348" speed="13.41" numLanes="3"/>
    <edge id="19_364" from="19" to="364" speed="13.41" numLanes="3"/>
    <edge id="19_380" from="19" to="380" speed="13.41" numLanes="3"/>
    <edge id="20_397" from="20" to="397" speed="13.41" numLanes="3"/>
    <edge id="21_412" from="21" to="412" speed="13.41" numLanes="3"/>
    <edge id="21_413" from="21" to="413" speed="13.41" numLanes="3"/>
    <edge id="22_414" from="22" to="414" speed="13.41" numLanes="3"/>
    <edge id="22_415" from="22" to="415" speed="13.41" numLanes="3"/>
    <edge id="23_416" from="23" to="416" speed="13.41" numLanes="3"/>
    <edge id="24_266" from="24" to="266" speed="44.98" numLanes="7"/>
    <edge id="24_267" from="24" to="267" speed="44.98" numLanes="7"/>
    <edge id="25_268" from="25" to="268" speed="44.98" numLanes="7"/>
    <edge id="25_269" from="25" to="269" speed="44.98" numLanes="7"/>
    <edge id="26_273" from="26" to="273" speed="44.98" numLanes="7"/>
    <edge id="26_274" from="26" to="274" speed="44.98" numLanes="7"/>
    <edge id="27_302" from="27" to="302" speed="44.98" numLanes="7"/>
    <edge id="27_303" from="27" to="303" speed="44.98" numLanes="7"/>
    <edge id="28_303" from="28" to="303" speed="44.98" numLanes="7"/>
    <edge id="28_304" from="28" to="304" speed="44.98" numLanes="7"/>
    <edge id="29_308" from="29" to="308" speed="44.98" numLanes="7"/>
    <edge id="29_337" from="29" to="337" speed="44.98" numLanes="7"/>
    <edge id="30_340" from="30" to="340" speed="44.98" numLanes="7"/>
    <edge id="30_341" from="30" to="341" speed="44.98" numLanes="7"/>
    <edge id="31_329" from="31" to="329" speed="44.98" numLanes="7"/>
    <edge id="31_330" from="31" to="330" speed="44.98" numLanes="7"/>
    <edge id="32_332" from="32" to="332" speed="44.98" numLanes="7"/>
    <edge id="32_333" from="32" to="333" speed="44.98" numLanes="7"/>
    <edge id="33_337" from="33" to="337" speed="44.98" numLanes="7"/>
    <edge id="33_361" from="33" to="361" speed="44.98" numLanes="7"/>
    <edge id="34_369" from="34" to="369" speed="44.98" numLanes="7"/>
    <edge id="34_385" from="34" to="385" speed="44.98" numLanes="7"/>
    <edge id="35_373" from="35" to="373" speed="44.98" numLanes="7"/>
    <edge id="35_389" from="35" to="389" speed="44.98" numLanes="7"/>
    <edge id="36_378" from="36" to="378" speed="44.98" numLanes="7"/>
    <edge id="36_394" from="36" to="394" speed="44.98" numLanes="7"/>
    <edge id="37_401" from="37" to="401" speed="44.98" numLanes="7"/>
    <edge id="37_402" from="37" to="402" speed="44.98" numLanes="7"/>
    <edge id="38_406" from="38" to="406" speed="44.98" numLanes="7"/>
    <edge id="38_407" from="38" to="407" speed="44.98" numLanes="7"/>
    <edge id="39_266" from="39" to="266" speed="13.41" numLanes="3"/>
    <edge id="39_267" from="39" to="267" speed="13.41" numLanes="3"/>
    <edge id="40_268" from="40" to="268" speed="13.41" numLanes="3"/>
    <edge id="40_269" from="40" to="269" speed="13.41" numLanes="3"/>
    <edge id="41_273" from="41" to="273" speed="13.41" numLanes="3"/>
    <edge id="41_274" from="41" to="274" speed="13.41" numLanes="3"/>
    <edge id="42_302" from="42" to="302" speed="13.41" numLanes="3"/>
    <edge id="42_303" from="42" to="303" speed="13.41" numLanes="3"/>
    <edge id="43_303" from="43" to="303" speed="13.41" numLanes="3"/>
    <edge id="43_304" from="43" to="304" speed="13.41" numLanes="3"/>
    <edge id="44_308" from="44" to="308" speed="13.41" numLanes="3"/>
    <edge id="44_337" from="44" to="337" speed="13.41" numLanes="3"/>
    <edge id="45_340" from="45" to="340" speed="13.41" numLanes="3"/>
    <edge id="45_341" from="45" to="341" speed="13.41" numLanes="3"/>
    <edge id="46_329" from="46" to="329" speed="13.41" numLanes="3"/>
    <edge id="46_330" from="46" to="330" speed="13.41" numLanes="3"/>
    <edge id="47_332" from="47" to="332" speed="13.41" numLanes="3"/>
    <edge id="47_333" from="47" to="333" speed="13.41" numLanes="3"/>
    <edge id="48_337" from="48" to="337" speed="13.41" numLanes="3"/>
    <edge id="48_361" from="48" to="361" speed="13.41" numLanes="3"/>
    <edge id="49_369" from="49" to="369" speed="13.41" numLanes="3"/>
    <edge id="49_385" from="49" to="385" speed="13.41" numLanes="3"/>
    <edge id="50_373" from="50" to="373" speed="13.41" numLanes="3"/>
    <edge id="50_389" from="50" to="389" speed="13.41" numLanes="3"/>
    <edge id="51_378" from="51" to="378" speed="13.41" numLanes="3"/>
    <edge id="51_394" from="51" to="394" speed="13.41" numLanes="3"/>
    <edge id="52_401" from="52" to="401" speed="13.41" numLanes="3"/>
    <edge id="52_402" from="52" to="402" speed="13.41" numLanes="3"/>
    <edge id="53_406" from="53" to="406" speed="13.41" numLanes="3"/>
    <edge id="53_407" from="53" to="407" speed="13.41" numLanes="3"/>
    <edge id="54_56" from="54" to="56" speed="20.12" numLanes="5"/>
    <edge id="54_230" from="54" to="230" speed="20.12" numLanes="5"/>
    <edge id="55_59" from="55" to="59" speed="20.12" numLanes="5"/>
    <edge id="56_102" from="56" to="102" speed="20.12" numLanes="5"/>
    <edge id="57_54" from="57" to="54" speed="20.12" numLanes="5"/>
    <edge id="57_235" from="57" to="235" speed="20.12" numLanes="5"/>
    <edge id="58_137" from="58" to="137" speed="20.12" numLanes="5"/>
    <edge id="58_145" from="58" to="145" speed="20.12" numLanes="5"/>
    <edge id="59_146" from="59" to="146" speed="20.12" numLanes="5"/>
    <edge id="60_102" from="60" to="102" speed="20.12" numLanes="5"/>
    <edge id="60_230" from="60" to="230" speed="20.12" numLanes="5"/>
    <edge id="61_136" from="61" to="136" speed="20.12" numLanes="5"/>
    <edge id="62_2" from="62" to="2" speed="24.60" numLanes="5"/>
    <edge id="63_62" from="63" to="62" speed="24.60" numLanes="4"/>
    <edge id="64_63" from="64" to="63" speed="24.60" numLanes="4"/>
    <edge id="64_189" from="64" to="189" speed="20.12" numLanes="4"/>
    <edge id="65_64" from="65" to="64" speed="24.60" numLanes="4"/>
    <edge id="66_65" from="66" to="65" speed="24.60" numLanes="4"/>
    <edge id="67_66" from="67" to="66" speed="24.60" numLanes="4"/>
    <edge id="67_260" from="67" to="260" speed="13.41" numLanes="1"/>
    <edge id="68_67" from="68" to="67" speed="24.60" numLanes="4"/>
    <edge id="69_68" from="69" to="68" speed="24.60" numLanes="4"/>
    <edge id="69_258" from="69" to="258" speed="13.41" numLanes="1"/>
    <edge id="70_69" from="70" to="69" speed="24.60" numLanes="4"/>
    <edge id="71_70" from="71" to="70" speed="24.60" numLanes="4"/>
    <edge id="71_255" from="71" to="255" speed="13.41" numLanes="1"/>
    <edge id="72_71" from="72" to="71" speed="24.60" numLanes="4"/>
    <edge id="73_72" from="73" to="72" speed="24.60" numLanes="4"/>
    <edge id="73_141" from="73" to="141" speed="20.12" numLanes="4"/>
    <edge id="74_73" from="74" to="73" speed="24.60" numLanes="4"/>
    <edge id="75_3" from="75" to="3" speed="24.60" numLanes="5"/>
    <edge id="76_75" from="76" to="75" speed="24.60" numLanes="4"/>
    <edge id="77_76" from="77" to="76" speed="24.60" numLanes="4"/>
    <edge id="77_141" from="77" to="141" speed="20.12" numLanes="4"/>
    <edge id="78_77" from="78" to="77" speed="24.60" numLanes="4"/>
    <edge id="79_78" from="79" to="78" speed="24.60" numLanes="4"/>
    <edge id="79_256" from="79" to="256" speed="13.41" numLanes="1"/>
    <edge id="80_79" from="80" to="79" speed="24.60" numLanes="4"/>
    <edge id="81_80" from="81" to="80" speed="24.60" numLanes="4"/>
    <edge id="81_259" from="81" to="259" speed="13.41" numLanes="1"/>
    <edge id="82_81" from="82" to="81" speed="24.60" numLanes="4"/>
    <edge id="83_82" from="83" to="82" speed="24.60" numLanes="4"/>
    <edge id="83_261" from="83" to="261" speed="13.41" numLanes="1"/>
    <edge id="84_83" from="84" to="83" speed="24.60" numLanes="4"/>
    <edge id="85_84" from="85" to="84" speed="24.60" numLanes="4"/>
    <edge id="86_85" from="86" to="85" speed="24.60" numLanes="4"/>
    <edge id="86_189" from="86" to="189" speed="20.12" numLanes="4"/>
    <edge id="87_86" from="87" to="86" speed="24.60" numLanes="4"/>
    <edge id="88_1" from="88" to="1" speed="24.60" numLanes="5"/>
    <edge id="89_88" from="89" to="88" speed="24.60" numLanes="4"/>
    <edge id="90_89" from="90" to="89" speed="24.60" numLanes="4"/>
    <edge id="90_293" from="90" to="293" speed="13.41" numLanes="1"/>
    <edge id="91_90" from="91" to="90" speed="24.60" numLanes="4"/>
    <edge id="92_91" from="92" to="91" speed="24.60" numLanes="4"/>
    <edge id="93_92" from="93" to="92" speed="24.60" numLanes="4"/>
    <edge id="93_183" from="93" to="183" speed="20.12" numLanes="4"/>
    <edge id="93_195" from="93" to="195" speed="20.12" numLanes="4"/>
    <edge id="94_93" from="94" to="93" speed="24.60" numLanes="4"/>
    <edge id="95_94" from="95" to="94" speed="24.60" numLanes="4"/>
    <edge id="95_290" from="95" to="290" speed="13.41" numLanes="1"/>
    <edge id="96_95" from="96" to="95" speed="24.60" numLanes="4"/>
    <edge id="97_96" from="97" to="96" speed="24.60" numLanes="4"/>
    <edge id="97_288" from="97" to="288" speed="13.41" numLanes="1"/>
    <edge id="98_97" from="98" to="97" speed="24.60" numLanes="4"/>
    <edge id="99_98" from="99" to="98" speed="24.60" numLanes="4"/>
    <edge id="99_283" from="99" to="283" speed="13.41" numLanes="1"/>
    <edge id="100_99" from="100" to="99" speed="24.60" numLanes="4"/>
    <edge id="101_100" from="101" to="100" speed="24.60" numLanes="4"/>
    <edge id="101_278" from="101" to="278" speed="13.41" numLanes="1"/>
    <edge id="102_101" from="102" to="101" speed="24.60" numLanes="4"/>
    <edge id="103_59" from="103" to="59" speed="20.12" numLanes="5"/>
    <edge id="103_61" from="103" to="61" speed="20.12" numLanes="5"/>
    <edge id="103_237" from="103" to="237" speed="20.12" numLanes="5"/>
    <edge id="104_103" from="104" to="103" speed="24.60" numLanes="4"/>
    <edge id="105_104" from="105" to="104" speed="24.60" numLanes="4"/>
    <edge id="105_279" from="105" to="279" speed="13.41" numLanes="1"/>
    <edge id="106_105" from="106" to="105" speed="24.60" numLanes="4"/>
    <edge id="107_106" from="107" to="106" speed="24.60" numLanes="4"/>
    <edge id="107_284" from="107" to="284" speed="13.41" numLanes="1"/>
    <edge id="108_107" from="108" to="107" speed="24.60" numLanes="4"/>
    <edge id="109_108" from="109" to="108" speed="24.60" numLanes="4"/>
    <edge id="109_289" from="109" to="289" speed="13.41" numLanes="1"/>
    <edge id="110_109" from="110" to="109" speed="24.60" numLanes="4"/>
    <edge id="111_110" from="111" to="110" speed="24.60" numLanes="4"/>
    <edge id="111_291" from="111" to="291" speed="13.41" numLanes="1"/>
    <edge id="112_111" from="112" to="111" speed="24.60" numLanes="4"/>
    <edge id="113_112" from="113" to="112" speed="24.60" numLanes="4"/>
    <edge id="113_183" from="113" to="183" speed="20.12" numLanes="4"/>
    <edge id="113_195" from="113" to="195" speed="20.12" numLanes="4"/>
    <edge id="114_113" from="114" to="113" speed="24.60" numLanes="4"/>
    <edge id="115_114" from="115" to="114" speed="24.60" numLanes="4"/>
    <edge id="116_115" from="116" to="115" speed="24.60" numLanes="4"/>
    <edge id="116_294" from="116" to="294" speed="13.41" numLanes="1"/>
    <edge id="117_116" from="117" to="116" speed="24.60" numLanes="4"/>
    <edge id="118_5" from="118" to="5" speed="24.60" numLanes="5"/>
    <edge id="119_118" from="119" to="118" speed="24.60" numLanes="4"/>
    <edge id="120_119" from="120" to="119" speed="24.60" numLanes="4"/>
    <edge id="120_400" from="120" to="400" speed="13.41" numLanes="1"/>
    <edge id="121_120" from="121" to="120" speed="24.60" numLanes="4"/>
    <edge id="122_121" from="122" to="121" speed="24.60" numLanes="4"/>
    <edge id="123_122" from="123" to="122" speed="24.60" numLanes="4"/>
    <edge id="123_382" from="123" to="382" speed="13.41" numLanes="1"/>
    <edge id="124_123" from="124" to="123" speed="24.60" numLanes="4"/>
    <edge id="125_124" from="125" to="124" speed="24.60" numLanes="4"/>
    <edge id="125_366" from="125" to="366" speed="13.41" numLanes="1"/>
    <edge id="126_125" from="126" to="125" speed="24.60" numLanes="4"/>
    <edge id="127_126" from="127" to="126" speed="24.60" numLanes="4"/>
    <edge id="127_350" from="127" to="350" speed="13.41" numLanes="1"/>
    <edge id="128_127" from="128" to="127" speed="24.60" numLanes="4"/>
    <edge id="129_128" from="129" to="128" speed="24.60" numLanes="4"/>
    <edge id="130_129" from="130" to="129" speed="24.60" numLanes="4"/>
    <edge id="130_324" from="130" to="324" speed="13.41" numLanes="1"/>
    <edge id="131_130" from="131" to="130" speed="24.60" numLanes="4"/>
    <edge id="132_131" from="132" to="131" speed="24.60" numLanes="4"/>
    <edge id="132_314" from="132" to="314" speed="13.41" numLanes="1"/>
    <edge id="133_132" from="133" to="132" speed="24.60" numLanes="4"/>
    <edge id="134_133" from="134" to="133" speed="24.60" numLanes="4"/>
    <edge id="135_134" from="135" to="134" speed="24.60" numLanes="4"/>
    <edge id="135_298" from="135" to="298" speed="13.41" numLanes="1"/>
    <edge id="136_135" from="136" to="135" speed="24.60" numLanes="4"/>
    <edge id="137_136" from="137" to="136" speed="24.60" numLanes="4"/>
    <edge id="138_60" from="138" to="60" speed="20.12" numLanes="5"/>
    <edge id="138_137" from="138" to="137" speed="24.60" numLanes="4"/>
    <edge id="138_236" from="138" to="236" speed="20.12" numLanes="5"/>
    <edge id="139_138" from="139" to="138" speed="24.60" numLanes="4"/>
    <edge id="140_139" from="140" to="139" speed="24.60" numLanes="4"/>
    <edge id="140_265" from="140" to="265" speed="13.41" numLanes="1"/>
    <edge id="141_140" from="141" to="140" speed="24.60" numLanes="4"/>
    <edge id="142_72" from="142" to="72" speed="20.12" numLanes="4"/>
    <edge id="142_76" from="142" to="76" speed="20.12" numLanes="4"/>
    <edge id="143_142" from="143" to="142" speed="24.60" numLanes="4"/>
    <edge id="144_143" from="144" to="143" speed="24.60" numLanes="4"/>
    <edge id="144_264" from="144" to="264" speed="13.41" numLanes="1"/>
    <edge id="145_144" from="145" to="144" speed="24.60" numLanes="4"/>
    <edge id="146_145" from="146" to="145" speed="24.60" numLanes="4"/>
    <edge id="147_57" from="147" to="57" speed="20.12" numLanes="5"/>
    <edge id="147_146" from="147" to="146" speed="24.60" numLanes="4"/>
    <edge id="148_147" from="148" to="147" speed="24.60" numLanes="4"/>
    <edge id="149_148" from="149" to="148" speed="24.60" numLanes="4"/>
    <edge id="149_297" from="149" to="297" speed="13.41" numLanes="1"/>
    <edge id="150_149" from="150" to="149" speed="24.60" numLanes="4"/>
    <edge id="151_150" from="151" to="150" speed="24.60" numLanes="4"/>
    <edge id="152_151" from="152" to="151" speed="24.60" numLanes="4"/>
    <edge id="152_310" from="152" to="310" speed="13.41" numLanes="1"/>
    <edge id="153_152" from="153" to="152" speed="24.60" numLanes="4"/>
    <edge id="154_153" from="154" to="153" speed="24.60" numLanes="4"/>
    <edge id="154_323" from="154" to="323" speed="13.41" numLanes="1"/>
    <edge id="155_154" from="155" to="154" speed="24.60" numLanes="4"/>
    <edge id="156_155" from="156" to="155" speed="24.60" numLanes="4"/>
    <edge id="157_156" from="157" to="156" speed="24.60" numLanes="4"/>
    <edge id="157_349" from="157" to="349" speed="13.41" numLanes="1"/>
    <edge id="158_157" from="158" to="157" speed="24.60" numLanes="4"/>
    <edge id="159_158" from="159" to="158" speed="24.60" numLanes="4"/>
    <edge id="159_365" from="159" to="365" speed="13.41" numLanes="1"/>
    <edge id="160_159" from="160" to="159" speed="24.60" numLanes="4"/>
    <edge id="161_160" from="161" to="160" speed="24.60" numLanes="4"/>
    <edge id="161_381" from="161" to="381" speed="13.41" numLanes="1"/>
    <edge id="162_161" from="162" to="161" speed="24.60" numLanes="4"/>
    <edge id="163_162" from="163" to="162" speed="24.60" numLanes="4"/>
    <edge id="164_163" from="164" to="163" speed="24.60" numLanes="4"/>
    <edge id="164_399" from="164" to="399" speed="13.41" numLanes="1"/>
    <edge id="165_164" from="165" to="164" speed="24.60" numLanes="4"/>
    <edge id="166_6" from="166" to="6" speed="24.60" numLanes="5"/>
    <edge id="167_166" from="167" to="166" speed="24.60" numLanes="4"/>
    <edge id="168_167" from="168" to="167" speed="24.60" numLanes="4"/>
    <edge id="168_409" from="168" to="409" speed="13.41" numLanes="1"/>
    <edge id="169_168" from="169" to="168" speed="24.60" numLanes="4"/>
    <edge id="170_169" from="170" to="169" speed="24.60" numLanes="4"/>
    <edge id="171_170" from="171" to="170" speed="24.60" numLanes="4"/>
    <edge id="171_216" from="171" to="216" speed="20.12" numLanes="4"/>
    <edge id="172_171" from="172" to="171" speed="24.60" numLanes="4"/>
    <edge id="172_393" from="172" to="393" speed="13.41" numLanes="1"/>
    <edge id="173_172" from="173" to="172" speed="24.60" numLanes="4"/>
    <edge id="174_173" from="174" to="173" speed="24.60" numLanes="4"/>
    <edge id="175_174" from="175" to="174" speed="24.60" numLanes="4"/>
    <edge id="175_377" from="175" to="377" speed="13.41" numLanes="1"/>
    <edge id="176_175" from="176" to="175" speed="24.60" numLanes="4"/>
    <edge id="177_176" from="177" to="176" speed="24.60" numLanes="4"/>
    <edge id="177_360" from="177" to="360" speed="13.41" numLanes="1"/>
    <edge id="178_177" from="178" to="177" speed="24.60" numLanes="4"/>
    <edge id="179_178" from="179" to="178" speed="24.60" numLanes="4"/>
    <edge id="179_336" from="179" to="336" speed="13.41" numLanes="1"/>
    <edge id="180_179" from="180" to="179" speed="24.60" numLanes="4"/>
    <edge id="181_180" from="181" to="180" speed="24.60" numLanes="4"/>
    <edge id="181_307" from="181" to="307" speed="13.41" numLanes="1"/>
    <edge id="182_181" from="182" to="181" speed="24.60" numLanes="4"/>
    <edge id="183_182" from="183" to="182" speed="24.60" numLanes="4"/>
    <edge id="184_92" from="184" to="92" speed="20.12" numLanes="4"/>
    <edge id="184_112" from="184" to="112" speed="20.12" numLanes="4"/>
    <edge id="184_183" from="184" to="183" speed="24.60" numLanes="4"/>
    <edge id="185_184" from="185" to="184" speed="24.60" numLanes="4"/>
    <edge id="186_185" from="186" to="185" speed="24.60" numLanes="4"/>
    <edge id="187_186" from="187" to="186" speed="24.60" numLanes="4"/>
    <edge id="187_272" from="187" to="272" speed="13.41" numLanes="1"/>
    <edge id="188_187" from="188" to="187" speed="24.60" numLanes="4"/>
    <edge id="189_188" from="189" to="188" speed="24.60" numLanes="4"/>
    <edge id="190_63" from="190" to="63" speed="20.12" numLanes="4"/>
    <edge id="190_85" from="190" to="85" speed="20.12" numLanes="4"/>
    <edge id="191_190" from="191" to="190" speed="24.60" numLanes="4"/>
    <edge id="192_191" from="192" to="191" speed="24.60" numLanes="4"/>
    <edge id="193_192" from="193" to="192" speed="24.60" numLanes="4"/>
    <edge id="193_271" from="193" to="271" speed="13.41" numLanes="1"/>
    <edge id="194_193" from="194" to="193" speed="24.60" numLanes="4"/>
    <edge id="195_194" from="195" to="194" speed="24.60" numLanes="4"/>
    <edge id="196_92" from="196" to="92" speed="20.12" numLanes="4"/>
    <edge id="196_112" from="196" to="112" speed="20.12" numLanes="4"/>
    <edge id="196_195" from="196" to="195" speed="24.60" numLanes="4"/>
    <edge id="197_196" from="197" to="196" speed="24.60" numLanes="4"/>
    <edge id="198_197" from="198" to="197" speed="24.60" numLanes="4"/>
    <edge id="199_198" from="199" to="198" speed="24.60" numLanes="4"/>
    <edge id="199_306" from="199" to="306" speed="13.41" numLanes="1"/>
    <edge id="200_199" from="200" to="199" speed="24.60" numLanes="4"/>
    <edge id="201_200" from="201" to="200" speed="24.60" numLanes="4"/>
    <edge id="201_335" from="201" to="335" speed="13.41" numLanes="1"/>
    <edge id="202_201" from="202" to="201" speed="24.60" numLanes="4"/>
    <edge id="203_202" from="203" to="202" speed="24.60" numLanes="4"/>
    <edge id="203_359" from="203" to="359" speed="13.41" numLanes="1"/>
    <edge id="204_203" from="204" to="203" speed="24.60" numLanes="4"/>
    <edge id="205_204" from="205" to="204" speed="24.60" numLanes="4"/>
    <edge id="205_376" from="205" to="376" speed="13.41" numLanes="1"/>
    <edge id="206_205" from="206" to="205" speed="24.60" numLanes="4"/>
    <edge id="207_206" from="207" to="206" speed="24.60" numLanes="4"/>
    <edge id="208_207" from="208" to="207" speed="24.60" numLanes="4"/>
    <edge id="209_208" from="209" to="208" speed="24.60" numLanes="4"/>
    <edge id="209_392" from="209" to="392" speed="13.41" numLanes="1"/>
    <edge id="210_209" from="210" to="209" speed="24.60" numLanes="4"/>
    <edge id="210_250" from="210" to="250" speed="20.12" numLanes="4"/>
    <edge id="211_210" from="211" to="210" speed="24.60" numLanes="4"/>
    <edge id="212_211" from="212" to="211" speed="24.60" numLanes="4"/>
    <edge id="212_408" from="212" to="408" speed="13.41" numLanes="1"/>
    <edge id="213_212" from="213" to="212" speed="24.60" numLanes="4"/>
    <edge id="214_7" from="214" to="7" speed="24.60" numLanes="5"/>
    <edge id="215_214" from="215" to="214" speed="24.60" numLanes="5"/>
    <edge id="216_215" from="216" to="215" speed="24.60" numLanes="5"/>
    <edge id="217_169" from="217" to="169" speed="20.12" numLanes="4"/>
    <edge id="217_216" from="217" to="216" speed="24.60" numLanes="5"/>
    <edge id="218_217" from="218" to="217" speed="24.60" numLanes="5"/>
    <edge id="218_392" from="218" to="392" speed="13.41" numLanes="1"/>
    <edge id="219_218" from="219" to="218" speed="24.60" numLanes="5"/>
    <edge id="220_219" from="220" to="219" speed="24.60" numLanes="5"/>
    <edge id="220_363" from="220" to="363" speed="13.41" numLanes="1"/>
    <edge id="221_220" from="221" to="220" speed="24.60" numLanes="5"/>
    <edge id="222_221" from="222" to="221" speed="24.60" numLanes="5"/>
    <edge id="223_222" from="223" to="222" speed="24.60" numLanes="5"/>
    <edge id="223_346" from="223" to="346" speed="13.41" numLanes="1"/>
    <edge id="224_223" from="224" to="223" speed="24.60" numLanes="5"/>
    <edge id="225_224" from="225" to="224" speed="24.60" numLanes="5"/>
    <edge id="225_330" from="225" to="330" speed="13.41" numLanes="1"/>
    <edge id="226_225" from="226" to="225" speed="24.60" numLanes="5"/>
    <edge id="227_226" from="227" to="226" speed="24.60" numLanes="5"/>
    <edge id="227_311" from="227" to="311" speed="13.41" numLanes="1"/>
    <edge id="228_227" from="228" to="227" speed="24.60" numLanes="5"/>
    <edge id="229_228" from="229" to="228" speed="24.60" numLanes="5"/>
    <edge id="229_277" from="229" to="277" speed="13.41" numLanes="1"/>
    <edge id="230_229" from="230" to="229" speed="24.60" numLanes="5"/>
    <edge id="231_56" from="231" to="56" speed="20.12" numLanes="5"/>
    <edge id="231_230" from="231" to="230" speed="24.60" numLanes="5"/>
    <edge id="232_58" from="232" to="58" speed="20.12" numLanes="5"/>
    <edge id="232_231" from="232" to="231" speed="24.60" numLanes="5"/>
    <edge id="233_232" from="233" to="232" speed="24.60" numLanes="5"/>
    <edge id="234_4" from="234" to="4" speed="24.60" numLanes="5"/>
    <edge id="235_234" from="235" to="234" speed="24.60" numLanes="5"/>
    <edge id="236_235" from="236" to="235" speed="24.60" numLanes="5"/>
    <edge id="237_236" from="237" to="236" speed="24.60" numLanes="5"/>
    <edge id="238_55" from="238" to="55" speed="20.12" numLanes="5"/>
    <edge id="238_61" from="238" to="61" speed="20.12" numLanes="5"/>
    <edge id="238_237" from="238" to="237" speed="24.60" numLanes="5"/>
    <edge id="239_238" from="239" to="238" speed="24.60" numLanes="5"/>
    <edge id="240_239" from="240" to="239" speed="24.60" numLanes="5"/>
    <edge id="240_299" from="240" to="299" speed="13.41" numLanes="1"/>
    <edge id="241_240" from="241" to="240" speed="24.60" numLanes="5"/>
    <edge id="242_241" from="242" to="241" speed="24.60" numLanes="5"/>
    <edge id="242_317" from="242" to="317" speed="13.41" numLanes="1"/>
    <edge id="243_242" from="243" to="242" speed="24.60" numLanes="5"/>
    <edge id="244_243" from="244" to="243" speed="24.60" numLanes="5"/>
    <edge id="244_339" from="244" to="339" speed="13.41" numLanes="1"/>
    <edge id="245_244" from="245" to="244" speed="24.60" numLanes="5"/>
    <edge id="246_245" from="246" to="245" speed="24.60" numLanes="5"/>
    <edge id="246_347" from="246" to="347" speed="13.41" numLanes="1"/>
    <edge id="247_246" from="247" to="246" speed="24.60" numLanes="5"/>
    <edge id="248_247" from="248" to="247" speed="24.60" numLanes="5"/>
    <edge id="248_374" from="248" to="374" speed="13.41" numLanes="1"/>
    <edge id="249_248" from="249" to="248" speed="24.60" numLanes="5"/>
    <edge id="250_249" from="250" to="249" speed="24.60" numLanes="5"/>
    <edge id="251_250" from="251" to="250" speed="24.60" numLanes="5"/>
    <edge id="251_391" from="251" to="391" speed="13.41" numLanes="1"/>
    <edge id="252_208" from="252" to="208" speed="20.12" numLanes="4"/>
    <edge id="252_251" from="252" to="251" speed="24.60" numLanes="5"/>
    <edge id="253_252" from="253" to="252" speed="24.60" numLanes="5"/>
    <edge id="254_15" from="254" to="15" speed="13.41" numLanes="3"/>
    <edge id="254_255" from="254" to="255" speed="13.41" numLanes="3"/>
    <edge id="255_70" from="255" to="70" speed="13.41" numLanes="1"/>
    <edge id="255_254" from="255" to="254" speed="13.41" numLanes="3"/>
    <edge id="255_256" from="255" to="256" speed="13.41" numLanes="3"/>
    <edge id="256_78" from="256" to="78" speed="13.41" numLanes="1"/>
    <edge id="256_255" from="256" to="255" speed="13.41" numLanes="3"/>
    <edge id="256_266" from="256" to="266" speed="13.41" numLanes="3"/>
    <edge id="257_14" from="257" to="14" speed="13.41" numLanes="3"/>
    <edge id="257_258" from="257" to="258" speed="13.41" numLanes="3"/>
    <edge id="258_68" from="258" to="68" speed="13.41" numLanes="1"/>
    <edge id="258_257" from="258" to="257" speed="13.41" numLanes="3"/>
    <edge id="258_259" from="258" to="259" speed="13.41" numLanes="3"/>
    <edge id="259_80" from="259" to="80" speed="13.41" numLanes="1"/>
    <edge id="259_258" from="259" to="258" speed="13.41" numLanes="3"/>
    <edge id="259_267" from="259" to="267" speed="13.41" numLanes="3"/>
    <edge id="260_66" from="260" to="66" speed="13.41" numLanes="1"/>
    <edge id="260_261" from="260" to="261" speed="13.41" numLanes="3"/>
    <edge id="261_82" from="261" to="82" speed="13.41" numLanes="1"/>
    <edge id="261_260" from="261" to="260" speed="13.41" numLanes="3"/>
    <edge id="261_269" from="261" to="269" speed="13.41" numLanes="3"/>
    <edge id="262_13" from="262" to="13" speed="13.41" numLanes="3"/>
    <edge id="262_273" from="262" to="273" speed="13.41" numLanes="3"/>
    <edge id="263_16" from="263" to="16" speed="13.41" numLanes="3"/>
    <edge id="263_264" from="263" to="264" speed="13.41" numLanes="3"/>
    <edge id="264_143" from="264" to="143" speed="13.41" numLanes="1"/>
    <edge id="264_263" from="264" to="263" speed="13.41" numLanes="3"/>
    <edge id="264_265" from="264" to="265" speed="13.41" numLanes="3"/>
    <edge id="265_139" from="265" to="139" speed="13.41" numLanes="1"/>
    <edge id="265_264" from="265" to="264" speed="13.41" numLanes="3"/>
    <edge id="265_266" from="265" to="266" speed="13.41" numLanes="3"/>
    <edge id="266_24" from="266" to="24" speed="44.98" numLanes="7"/>
    <edge id="266_39" from="266" to="39" speed="13.41" numLanes="3"/>
    <edge id="266_256" from="266" to="256" speed="13.41" numLanes="3"/>
    <edge id="266_265" from="266" to="265" speed="13.41" numLanes="3"/>
    <edge id="266_277" from="266" to="277" speed="13.41" numLanes="3"/>
    <edge id="267_24" from="267" to="24" speed="44.98" numLanes="7"/>
    <edge id="267_39" from="267" to="39" speed="13.41" numLanes="3"/>
    <edge id="267_259" from="267" to="259" speed="13.41" numLanes="3"/>
    <edge id="267_268" from="267" to="268" speed="13.41" numLanes="3"/>
    <edge id="267_281" from="267" to="281" speed="13.41" numLanes="3"/>
    <edge id="268_25" from="268" to="25" speed="44.98" numLanes="7"/>
    <edge id="268_40" from="268" to="40" speed="13.41" numLanes="3"/>
    <edge id="268_267" from="268" to="267" speed="13.41" numLanes="3"/>