<?xml version="1.0" encoding="UTF-8"?>
<edges>
  <edge id="0" from="1" to="2" length="4826.97" speed="13.41"/>
  <edge id="1" from="1" to="3" length="4443.95" speed="18.52"/>
  <edge id="2" from="2" to="1" length="4826.97" speed="13.41"/>
  <edge id="3" from="2" to="6" length="2027.05" speed="6.76"/>
  <edge id="4" from="3" to="1" length="4443.95" speed="18.52"/>
  <edge id="5" from="3" to="4" length="2417.34" speed="10.07"/>
  <edge id="6" from="3" to="12" length="3260.98" speed="13.59"/>
  <edge id="7" from="4" to="3" length="2417.34" speed="10.07"/>
  <edge id="8" from="4" to="5" length="1256.57" speed="10.47"/>
  <edge id="9" from="4" to="11" length="2171.01" speed="6.03"/>
  <edge id="10" from="5" to="4" length="1256.57" speed="10.47"/>
  <edge id="11" from="5" to="6" length="3071.09" speed="12.80"/>
  <edge id="12" from="5" to="9" length="1716.74" speed="5.72"/>
  <edge id="13" from="6" to="2" length="2027.05" speed="6.76"/>
  <edge id="14" from="6" to="5" length="3071.09" speed="12.80"/>
  <edge id="15" from="6" to="8" length="2809.06" speed="23.41"/>
  <edge id="16" from="7" to="8" length="1455.66" speed="8.09"/>
  <edge id="17" from="7" to="18" length="1902.16" speed="15.85"/>
  <edge id="18" from="8" to="6" length="2809.06" speed="23.41"/>
  <edge id="19" from="8" to="7" length="1455.66" speed="8.09"/>
  <edge id="20" from="8" to="9" length="2210.49" speed="3.68"/>
  <edge id="21" from="8" to="16" length="1732.44" speed="5.77"/>
  <edge id="22" from="9" to="5" length="1716.74" speed="5.72"/>
  <edge id="23" from="9" to="8" length="2210.49" speed="3.68"/>
  <edge id="24" from="9" to="10" length="370.11" speed="2.06"/>
  <edge id="25" from="10" to="9" length="370.11" speed="2.06"/>
  <edge id="26" from="10" to="11" length="1246.49" speed="4.15"/>
  <edge id="27" from="10" to="15" length="1764.64" speed="4.90"/>
  <edge id="28" from="10" to="16" length="1622.96" speed="6.76"/>
  <edge id="29" from="10" to="17" length="1674.54" speed="3.49"/>
  <edge id="30" from="11" to="4" length="2171.01" speed="6.03"/>
  <edge id="31" from="11" to="10" length="1246.49" speed="4.15"/>
  <edge id="32" from="11" to="12" length="2680.65" speed="7.45"/>
  <edge id="33" from="11" to="14" length="1682.65" speed="7.01"/>
  <edge id="34" from="12" to="3" length="3260.98" speed="13.59"/>
  <edge id="35" from="12" to="11" length="2680.65" speed="7.45"/>
  <edge id="36" from="12" to="13" length="6014.49" speed="33.41"/>
  <edge id="37" from="13" to="12" length="6014.49" speed="33.41"/>
  <edge id="38" from="13" to="24" length="3816.72" speed="15.90"/>
  <edge id="39" from="14" to="11" length="1682.65" speed="7.01"/>
  <edge id="40" from="14" to="15" length="1572.49" speed="5.24"/>
  <edge id="41" from="14" to="23" length="1606.57" speed="6.69"/>
  <edge id="42" from="15" to="10" length="1764.64" speed="4.90"/>
  <edge id="43" from="15" to="14" length="1572.49" speed="5.24"/>
  <edge id="44" from="15" to="19" length="1625.36" speed="9.03"/>
  <edge id="45" from="15" to="22" length="1617.24" speed="8.98"/>
  <edge id="46" from="16" to="8" length="1732.44" speed="5.77"/>
  <edge id="47" from="16" to="10" length="1622.96" speed="6.76"/>
  <edge id="48" from="16" to="17" length="607.52" speed="5.06"/>
  <edge id="49" from="16" to="18" length="1393.05" speed="7.74"/>
  <edge id="50" from="17" to="10" length="1674.54" speed="3.49"/>
  <edge id="51" from="17" to="16" length="607.52" speed="5.06"/>
  <edge id="52" from="17" to="19" length="1299.75" speed="10.83"/>
  <edge id="53" from="18" to="7" length="1902.16" speed="15.85"/>
  <edge id="54" from="18" to="16" length="1393.05" speed="7.74"/>
  <edge id="55" from="18" to="20" length="3754.37" speed="15.64"/>
  <edge id="56" from="19" to="15" length="1625.36" speed="9.03"/>
  <edge id="57" from="19" to="17" length="1299.75" speed="10.83"/>
  <edge id="58" from="19" to="20" length="1585.42" speed="6.61"/>
  <edge id="59" from="20" to="18" length="3754.37" speed="15.64"/>
  <edge id="60" from="20" to="19" length="1585.42" speed="6.61"/>
  <edge id="61" from="20" to="21" length="1682.29" speed="4.67"/>
  <edge id="62" from="20" to="22" length="1615.54" speed="5.39"/>
  <edge id="63" from="21" to="20" length="1682.29" speed="4.67"/>
  <edge id="64" from="21" to="22" length="486.72" speed="4.06"/>
  <edge id="65" from="21" to="24" length="1677.66" speed="9.32"/>
  <edge id="66" from="22" to="15" length="1617.24" speed="8.98"/>
  <edge id="67" from="22" to="20" length="1615.54" speed="5.39"/>
  <edge id="68" from="22" to="21" length="486.72" speed="4.06"/>
  <edge id="69" from="22" to="23" length="1583.01" speed="6.60"/>
  <edge id="70" from="23" to="14" length="1606.57" speed="6.69"/>
  <edge id="71" from="23" to="22" length="1583.01" speed="6.60"/>
  <edge id="72" from="23" to="24" length="1307.53" speed="10.90"/>
  <edge id="73" from="24" to="13" length="3816.72" speed="15.90"/>
  <edge id="74" from="24" to="21" length="1677.66" speed="9.32"/>
  <edge id="75" from="24" to="23" length="1307.53" speed="10.90"/>
</edges>
