<?xml version="1.0" encoding="UTF-8"?>

<!-- generated on 2025-05-07 16:12:05 by Eclipse SUMO netconvert Version 1.19.0
<configuration xmlns:xsi="http://www.w3.org/2001/XMLSchema-instance" xsi:noNamespaceSchemaLocation="http://sumo.dlr.de/xsd/netconvertConfiguration.xsd">

    <input>
        <node-files value="c:\Users\luuks\bep-vrp\sumo_simulation_output\SiouxFalls\nodes.nod.xml"/>
        <edge-files value="c:\Users\luuks\bep-vrp\sumo_simulation_output\SiouxFalls\edges.edg.xml"/>
    </input>

    <output>
        <output-file value="c:\Users\luuks\bep-vrp\sumo_simulation_output\SiouxFalls\SiouxFalls.net.xml"/>
    </output>

    <processing>
        <geometry.remove value="true"/>
        <roundabouts.guess value="true"/>
    </processing>

    <ramp_guessing>
        <ramps.guess value="true"/>
    </ramp_guessing>

    <junctions>
        <junctions.join value="true"/>
    </junctions>

    <report>
        <verbose value="true"/>
    </report>

</configuration>
-->

<net version="1.16" junctionCornerDetail="5" limitTurnSpeed="5.50" xmlns:xsi="http://www.w3.org/2001/XMLSchema-instance" xsi:noNamespaceSchemaLocation="http://sumo.dlr.de/xsd/net_file.xsd">

    <location netOffset="1848.19,13579.21" convBoundary="0.00,0.00,8046.99,13579.21" origBoundary="-1848.19,-13579.21,6198.80,0.00" projParameter="!"/>

    <edge id=":1_0" function="internal">
        <lane id=":1_0_0" index="0" speed="6.07" length="8.27" shape="1851.91,13580.22 1849.62,13580.27 1847.92,13579.55 1846.83,13578.07 1846.35,13575.82"/>
    </edge>
    <edge id=":1_1" function="internal">
        <lane id=":1_1_0" index="0" speed="3.90" length="2.76" shape="1849.54,13575.60 1849.70,13576.35 1850.06,13576.84 1850.63,13577.08 1851.39,13577.06"/>
    </edge>
    <edge id=":10_0" function="internal">
        <lane id=":10_0_0" index="0" speed="3.11" length="10.46" shape="4985.22,6074.97 4984.72,6072.17 4983.48,6070.08 4981.51,6068.70 4978.81,6068.03"/>
    </edge>
    <edge id=":10_1" function="internal">
        <lane id=":10_1_0" index="0" speed="3.48" length="15.94" shape="4985.22,6074.97 4984.87,6059.03"/>
    </edge>
    <edge id=":10_2" function="internal">
        <lane id=":10_2_0" index="0" speed="2.78" length="27.50" shape="4985.22,6074.97 4986.40,6070.68 4990.33,6066.76 4997.01,6063.22 5006.44,6060.07"/>
    </edge>
    <edge id=":10_3" function="internal">
        <lane id=":10_3_0" index="0" speed="4.41" length="26.47" shape="4985.22,6074.97 4986.75,6070.30 4991.43,6067.88 4998.62,6067.20 5007.68,6067.75"/>
    </edge>
    <edge id=":10_4" function="internal">
        <lane id=":10_4_0" index="0" speed="2.06" length="4.67" shape="4985.22,6074.97 4985.97,6073.74 4986.75,6073.30 4987.57,6073.67 4988.42,6074.83"/>
    </edge>
    <edge id=":10_5" function="internal">
        <lane id=":10_5_0" index="0" speed="4.41" length="20.84" shape="5007.35,6070.93 4998.98,6070.45 4993.03,6070.94 4989.51,6072.40 4988.42,6074.83"/>
    </edge>
    <edge id=":10_6" function="internal">
        <lane id=":10_6_0" index="0" speed="5.46" length="28.69" shape="5007.35,6070.93 4978.81,6068.03"/>
    </edge>
    <edge id=":10_7" function="internal">
        <lane id=":10_7_0" index="0" speed="5.83" length="10.33" shape="5007.35,6070.93 4997.53,6069.34 4997.17,6069.21"/>
    </edge>
    <edge id=":10_8" function="internal">
        <lane id=":10_8_0" index="0" speed="5.12" length="2.17" shape="5007.35,6070.93 5005.41,6069.98"/>
    </edge>
    <edge id=":10_9" function="internal">
        <lane id=":10_9_0" index="0" speed="3.65" length="1.44" shape="5007.35,6070.93 5006.24,6070.02"/>
    </edge>
    <edge id=":10_25" function="internal">
        <lane id=":10_25_0" index="0" speed="5.83" length="17.11" shape="4997.17,6069.21 4990.50,6066.82 4986.28,6063.38 4984.87,6059.03"/>
    </edge>
    <edge id=":10_26" function="internal">
        <lane id=":10_26_0" index="0" speed="5.12" length="12.88" shape="5005.41,6069.98 5003.85,6069.20 5002.45,6065.87 5003.27,6062.36 5006.44,6060.07"/>
    </edge>
    <edge id=":10_27" function="internal">
        <lane id=":10_27_0" index="0" speed="3.65" length="3.23" shape="5006.24,6070.02 5005.92,6069.18 5006.40,6068.43 5007.68,6067.75"/>
    </edge>
    <edge id=":10_10" function="internal">
        <lane id=":10_10_0" index="0" speed="5.12" length="13.40" shape="5007.29,6063.15 5002.77,6064.69 5001.33,6065.97 5002.96,6066.99 5007.68,6067.75"/>
    </edge>
    <edge id=":10_11" function="internal">
        <lane id=":10_11_0" index="0" speed="2.78" length="23.29" shape="5007.29,6063.15 4998.93,6065.86 4993.00,6068.70 4989.49,6071.70 4988.42,6074.83"/>
    </edge>
    <edge id=":10_12" function="internal">
        <lane id=":10_12_0" index="0" speed="3.82" length="28.95" shape="5007.29,6063.15 5001.51,6064.55 4993.11,6066.28 4984.68,6067.67 4978.81,6068.03"/>
    </edge>
    <edge id=":10_13" function="internal">
        <lane id=":10_13_0" index="0" speed="4.20" length="26.25" shape="5007.29,6063.15 4998.64,6065.13 4991.51,6065.56 4986.66,6063.76 4984.87,6059.03"/>
    </edge>
    <edge id=":10_14" function="internal">
        <lane id=":10_14_0" index="0" speed="3.49" length="4.67" shape="5007.29,6063.15 5005.92,6062.70 5005.33,6062.03 5005.50,6061.16 5006.44,6060.07"/>
    </edge>
    <edge id=":10_15" function="internal">
        <lane id=":10_15_0" index="0" speed="4.20" length="20.19" shape="4988.07,6059.02 4989.22,6061.37 4992.67,6062.33 4998.41,6061.89 5006.44,6060.07"/>
    </edge>
    <edge id=":10_16" function="internal">
        <lane id=":10_16_0" index="0" speed="5.83" length="22.83" shape="4988.07,6059.02 4989.30,6062.09 4992.98,6064.57 4999.10,6066.46 5007.68,6067.75"/>
    </edge>
    <edge id=":10_17" function="internal">
        <lane id=":10_17_0" index="0" speed="3.48" length="15.82" shape="4988.07,6059.02 4988.42,6074.83"/>
    </edge>
    <edge id=":10_18" function="internal">
        <lane id=":10_18_0" index="0" speed="4.53" length="15.10" shape="4988.07,6059.02 4987.50,6063.32 4985.77,6066.25 4982.87,6067.83 4978.81,6068.03"/>
    </edge>
    <edge id=":10_19" function="internal">
        <lane id=":10_19_0" index="0" speed="3.65" length="4.67" shape="4988.07,6059.02 4987.27,6060.22 4986.47,6060.62 4985.67,6060.23 4984.87,6059.03"/>
    </edge>
    <edge id=":10_20" function="internal">
        <lane id=":10_20_0" index="0" speed="4.53" length="9.54" shape="4979.14,6064.85 4981.65,6064.71 4983.44,6063.69 4984.51,6061.80 4984.87,6059.03"/>
    </edge>
    <edge id=":10_21" function="internal">
        <lane id=":10_21_0" index="0" speed="3.82" length="27.78" shape="4979.14,6064.85 4984.82,6064.50 4992.85,6063.15 5000.84,6061.44 5006.44,6060.07"/>
    </edge>
    <edge id=":10_22" function="internal">
        <lane id=":10_22_0" index="0" speed="5.46" length="28.69" shape="4979.14,6064.85 5007.68,6067.75"/>
    </edge>
    <edge id=":10_23" function="internal">
        <lane id=":10_23_0" index="0" speed="3.11" length="4.21" shape="4979.14,6064.85 4983.05,6065.81 4983.20,6065.92"/>
    </edge>
    <edge id=":10_24" function="internal">
        <lane id=":10_24_0" index="0" speed="3.65" length="1.44" shape="4979.14,6064.85 4980.25,6065.77"/>
    </edge>
    <edge id=":10_28" function="internal">
        <lane id=":10_28_0" index="0" speed="3.11" length="10.88" shape="4983.20,6065.92 4985.90,6067.80 4987.69,6070.81 4988.42,6074.83"/>
    </edge>
    <edge id=":10_29" function="internal">
        <lane id=":10_29_0" index="0" speed="3.65" length="3.23" shape="4980.25,6065.77 4980.57,6066.60 4980.09,6067.36 4978.81,6068.03"/>
    </edge>
    <edge id=":11_0" function="internal">
        <lane id=":11_0_0" index="0" speed="5.09" length="9.04" shape="3753.77,5942.78 3751.26,5942.89 3749.46,5943.78 3748.37,5945.47 3747.98,5947.95"/>
    </edge>
    <edge id=":11_1" function="internal">
        <lane id=":11_1_0" index="0" speed="5.80" length="15.29" shape="3753.77,5942.78 3749.99,5942.45 3746.15,5942.20 3742.30,5942.04 3738.50,5941.97"/>
    </edge>
    <edge id=":11_2" function="internal">
        <lane id=":11_2_0" index="0" speed="5.58" length="15.49" shape="3753.77,5942.78 3749.88,5941.84 3746.84,5939.89 3744.65,5936.93 3743.31,5932.96"/>
    </edge>
    <edge id=":11_3" function="internal">
        <lane id=":11_3_0" index="0" speed="3.65" length="4.67" shape="3753.77,5942.78 3752.66,5941.87 3752.34,5941.03 3752.82,5940.28 3754.09,5939.60"/>
    </edge>
    <edge id=":11_4" function="internal">
        <lane id=":11_4_0" index="0" speed="5.58" length="11.40" shape="3746.44,5932.32 3747.43,5935.26 3749.03,5937.46 3751.26,5938.90 3754.09,5939.60"/>
    </edge>
    <edge id=":11_5" function="internal">
        <lane id=":11_5_0" index="0" speed="6.52" length="15.73" shape="3746.44,5932.32 3747.11,5936.12 3747.61,5940.10 3747.91,5944.09 3747.98,5947.95"/>
    </edge>
    <edge id=":11_6" function="internal">
        <lane id=":11_6_0" index="0" speed="7.23" length="15.06" shape="3746.44,5932.32 3746.69,5936.57 3745.45,5939.59 3742.72,5941.39 3738.50,5941.97"/>
    </edge>
    <edge id=":11_7" function="internal">
        <lane id=":11_7_0" index="0" speed="3.65" length="1.44" shape="3746.44,5932.32 3745.90,5933.65"/>
    </edge>
    <edge id=":11_16" function="internal">
        <lane id=":11_16_0" index="0" speed="3.65" length="3.23" shape="3745.90,5933.65 3745.19,5934.21 3744.33,5933.97 3743.31,5932.96"/>
    </edge>
    <edge id=":11_8" function="internal">
        <lane id=":11_8_0" index="0" speed="6.10" length="9.06" shape="3738.53,5938.77 3741.07,5938.42 3742.71,5937.34 3743.46,5935.52 3743.31,5932.96"/>
    </edge>
    <edge id=":11_9" function="internal">
        <lane id=":11_9_0" index="0" speed="5.80" length="15.59" shape="3738.53,5938.77 3742.37,5938.84 3746.32,5939.01 3750.27,5939.26 3754.09,5939.60"/>
    </edge>
    <edge id=":11_10" function="internal">
        <lane id=":11_10_0" index="0" speed="6.74" length="2.55" shape="3738.53,5938.77 3741.06,5939.13"/>
    </edge>
    <edge id=":11_11" function="internal">
        <lane id=":11_11_0" index="0" speed="3.65" length="1.30" shape="3738.53,5938.77 3739.61,5939.50"/>
    </edge>
    <edge id=":11_17" function="internal">
        <lane id=":11_17_0" index="0" speed="6.74" length="12.48" shape="3741.06,5939.13 3742.70,5939.37 3745.67,5941.10 3747.43,5943.96 3747.98,5947.95"/>
    </edge>
    <edge id=":11_18" function="internal">
        <lane id=":11_18_0" index="0" speed="3.65" length="3.37" shape="3739.61,5939.50 3739.72,5939.58 3740.12,5940.38 3739.71,5941.18 3738.50,5941.97"/>
    </edge>
    <edge id=":11_12" function="internal">
        <lane id=":11_12_0" index="0" speed="6.74" length="9.86" shape="3744.78,5947.91 3744.41,5945.33 3743.25,5943.48 3741.28,5942.36 3738.50,5941.97"/>
    </edge>
    <edge id=":11_13" function="internal">
        <lane id=":11_13_0" index="0" speed="6.52" length="15.05" shape="3744.78,5947.91 3744.72,5944.15 3744.44,5940.40 3743.97,5936.66 3743.31,5932.96"/>
    </edge>
    <edge id=":11_14" function="internal">
        <lane id=":11_14_0" index="0" speed="5.09" length="14.54" shape="3744.78,5947.91 3745.40,5943.92 3747.16,5941.21 3750.06,5939.77 3754.09,5939.60"/>
    </edge>
    <edge id=":11_15" function="internal">
        <lane id=":11_15_0" index="0" speed="3.65" length="4.67" shape="3744.78,5947.91 3745.59,5946.72 3746.40,5946.33 3747.19,5946.74 3747.98,5947.95"/>
    </edge>
    <edge id=":12_0" function="internal">
        <lane id=":12_0_0" index="0" speed="23.50" length="14.33" shape="1065.43,5927.18 1063.15,5913.03"/>
    </edge>
    <edge id=":12_1" function="internal">
        <lane id=":12_1_0" index="0" speed="7.75" length="4.15" shape="1065.43,5927.18 1065.42,5923.03"/>
    </edge>
    <edge id=":12_2" function="internal">
        <lane id=":12_2_0" index="0" speed="3.65" length="1.44" shape="1065.43,5927.18 1066.05,5925.88"/>
    </edge>
    <edge id=":12_9" function="internal">
        <lane id=":12_9_0" index="0" speed="7.75" length="10.66" shape="1065.42,5923.03 1066.79,5920.08 1069.53,5918.32 1073.64,5917.76"/>
    </edge>
    <edge id=":12_10" function="internal">
        <lane id=":12_10_0" index="0" speed="3.65" length="3.23" shape="1066.05,5925.88 1066.78,5925.37 1067.63,5925.65 1068.60,5926.72"/>
    </edge>
    <edge id=":12_3" function="internal">
        <lane id=":12_3_0" index="0" speed="6.20" length="9.05" shape="1073.62,5920.96 1071.10,5921.30 1069.43,5922.38 1068.59,5924.18 1068.60,5926.72"/>
    </edge>
    <edge id=":12_4" function="internal">
        <lane id=":12_4_0" index="0" speed="8.66" length="14.43" shape="1073.62,5920.96 1069.57,5920.44 1066.47,5918.94 1064.33,5916.48 1063.15,5913.03"/>
    </edge>
    <edge id=":12_5" function="internal">
        <lane id=":12_5_0" index="0" speed="3.65" length="4.67" shape="1073.62,5920.96 1072.42,5920.15 1072.03,5919.35 1072.44,5918.55 1073.64,5917.76"/>
    </edge>
    <edge id=":12_6" function="internal">
        <lane id=":12_6_0" index="0" speed="7.29" length="9.94" shape="1066.30,5912.47 1067.11,5914.76 1068.60,5916.41 1070.78,5917.41 1073.64,5917.76"/>
    </edge>
    <edge id=":12_7" function="internal">
        <lane id=":12_7_0" index="0" speed="23.50" length="14.43" shape="1066.30,5912.47 1068.60,5926.72"/>
    </edge>
    <edge id=":12_8" function="internal">
        <lane id=":12_8_0" index="0" speed="3.65" length="1.44" shape="1066.30,5912.47 1065.72,5913.79"/>
    </edge>
    <edge id=":12_11" function="internal">
        <lane id=":12_11_0" index="0" speed="3.65" length="3.23" shape="1065.72,5913.79 1065.00,5914.33 1064.15,5914.07 1063.15,5913.03"/>
    </edge>
    <edge id=":13_0" function="internal">
        <lane id=":13_0_0" index="0" speed="6.22" length="11.58" shape="-0.56,5.91 -0.73,2.41 0.29,0.36 2.51,-0.25 5.90,0.58"/>
    </edge>
    <edge id=":13_1" function="internal">
        <lane id=":13_1_0" index="0" speed="3.98" length="3.86" shape="4.74,3.56 3.61,3.29 2.87,3.49 2.53,4.17 2.59,5.34"/>
    </edge>
    <edge id=":14_0" function="internal">
        <lane id=":14_0_0" index="0" speed="6.85" length="15.42" shape="3408.79,4300.12 3408.11,4296.36 3407.61,4292.50 3407.30,4288.61 3407.21,4284.80"/>
    </edge>
    <edge id=":14_1" function="internal">
        <lane id=":14_1_0" index="0" speed="6.12" length="15.05" shape="3408.79,4300.12 3408.54,4295.87 3409.78,4292.84 3412.50,4291.04 3416.72,4290.46"/>
    </edge>
    <edge id=":14_2" function="internal">
        <lane id=":14_2_0" index="0" speed="3.65" length="4.67" shape="3408.79,4300.12 3409.33,4298.78 3410.03,4298.23 3410.90,4298.46 3411.92,4299.48"/>
    </edge>
    <edge id=":14_3" function="internal">
        <lane id=":14_3_0" index="0" speed="6.10" length="9.06" shape="3416.70,4293.66 3414.16,4294.01 3412.52,4295.10 3411.77,4296.92 3411.92,4299.48"/>
    </edge>
    <edge id=":14_4" function="internal">
        <lane id=":14_4_0" index="0" speed="5.96" length="14.80" shape="3416.70,4293.66 3412.52,4293.09 3409.55,4291.42 3407.78,4288.65 3407.21,4284.80"/>
    </edge>
    <edge id=":14_5" function="internal">
        <lane id=":14_5_0" index="0" speed="3.65" length="4.67" shape="3416.70,4293.66 3415.50,4292.86 3415.11,4292.05 3415.51,4291.26 3416.72,4290.46"/>
    </edge>
    <edge id=":14_6" function="internal">
        <lane id=":14_6_0" index="0" speed="5.96" length="9.64" shape="3410.41,4284.82 3410.79,4287.27 3411.97,4289.03 3413.94,4290.09 3416.72,4290.46"/>
    </edge>
    <edge id=":14_7" function="internal">
        <lane id=":14_7_0" index="0" speed="6.85" length="14.76" shape="3410.41,4284.82 3410.49,4288.53 3410.78,4292.19 3411.26,4295.82 3411.92,4299.48"/>
    </edge>
    <edge id=":14_8" function="internal">
        <lane id=":14_8_0" index="0" speed="3.65" length="4.67" shape="3410.41,4284.82 3409.60,4286.02 3408.80,4286.41 3408.00,4286.01 3407.21,4284.80"/>
    </edge>
    <edge id=":15_0" function="internal">
        <lane id=":15_0_0" index="0" speed="5.07" length="9.11" shape="4979.64,4309.84 4979.28,4307.35 4978.23,4305.58 4976.48,4304.50 4974.03,4304.13"/>
    </edge>
    <edge id=":15_1" function="internal">
        <lane id=":15_1_0" index="0" speed="6.94" length="14.48" shape="4979.64,4309.84 4979.71,4295.36"/>
    </edge>
    <edge id=":15_2" function="internal">
        <lane id=":15_2_0" index="0" speed="6.96" length="14.25" shape="4979.64,4309.84 4980.18,4305.96 4981.84,4303.21 4984.61,4301.58 4988.49,4301.07"/>
    </edge>
    <edge id=":15_3" function="internal">
        <lane id=":15_3_0" index="0" speed="3.65" length="4.67" shape="4979.64,4309.84 4980.44,4308.63 4981.24,4308.23 4982.04,4308.63 4982.84,4309.83"/>
    </edge>
    <edge id=":15_4" function="internal">
        <lane id=":15_4_0" index="0" speed="6.47" length="9.03" shape="4988.45,4304.27 4985.99,4304.59 4984.24,4305.63 4983.19,4307.37 4982.84,4309.83"/>
    </edge>
    <edge id=":15_5" function="internal">
        <lane id=":15_5_0" index="0" speed="7.13" length="14.42" shape="4988.45,4304.27 4974.03,4304.13"/>
    </edge>
    <edge id=":15_6" function="internal">
        <lane id=":15_6_0" index="0" speed="8.01" length="4.07" shape="4988.45,4304.27 4984.59,4303.67 4984.45,4303.59"/>
    </edge>
    <edge id=":15_7" function="internal">
        <lane id=":15_7_0" index="0" speed="3.65" length="1.44" shape="4988.45,4304.27 4987.26,4303.46"/>
    </edge>
    <edge id=":15_16" function="internal">
        <lane id=":15_16_0" index="0" speed="8.01" length="10.17" shape="4984.45,4303.59 4981.84,4301.99 4980.22,4299.22 4979.71,4295.36"/>
    </edge>
    <edge id=":15_17" function="internal">
        <lane id=":15_17_0" index="0" speed="3.65" length="3.23" shape="4987.26,4303.46 4986.87,4302.65 4987.28,4301.86 4988.49,4301.07"/>
    </edge>
    <edge id=":15_8" function="internal">
        <lane id=":15_8_0" index="0" speed="6.52" length="9.07" shape="4982.91,4295.40 4983.24,4297.86 4984.27,4299.62 4986.02,4300.69 4988.49,4301.07"/>
    </edge>
    <edge id=":15_9" function="internal">
        <lane id=":15_9_0" index="0" speed="6.94" length="14.43" shape="4982.91,4295.40 4982.84,4309.83"/>
    </edge>
    <edge id=":15_10" function="internal">
        <lane id=":15_10_0" index="0" speed="7.11" length="14.18" shape="4982.91,4295.40 4982.32,4299.24 4980.64,4301.98 4977.87,4303.61 4974.03,4304.13"/>
    </edge>
    <edge id=":15_11" function="internal">
        <lane id=":15_11_0" index="0" speed="3.65" length="4.67" shape="4982.91,4295.40 4982.10,4296.59 4981.29,4296.98 4980.50,4296.57 4979.71,4295.36"/>
    </edge>
    <edge id=":15_12" function="internal">
        <lane id=":15_12_0" index="0" speed="6.53" length="9.05" shape="4974.05,4300.93 4976.50,4300.60 4978.26,4299.56 4979.33,4297.81 4979.71,4295.36"/>
    </edge>
    <edge id=":15_13" function="internal">
        <lane id=":15_13_0" index="0" speed="7.13" length="14.44" shape="4974.05,4300.93 4988.49,4301.07"/>
    </edge>
    <edge id=":15_14" function="internal">
        <lane id=":15_14_0" index="0" speed="5.07" length="4.08" shape="4974.05,4300.93 4977.89,4301.51 4978.05,4301.61"/>
    </edge>
    <edge id=":15_15" function="internal">
        <lane id=":15_15_0" index="0" speed="3.65" length="1.44" shape="4974.05,4300.93 4975.25,4301.74"/>
    </edge>
    <edge id=":15_18" function="internal">
        <lane id=":15_18_0" index="0" speed="5.07" length="10.15" shape="4978.05,4301.61 4980.63,4303.18 4982.28,4305.96 4982.84,4309.83"/>
    </edge>
    <edge id=":15_19" function="internal">
        <lane id=":15_19_0" index="0" speed="3.65" length="3.23" shape="4975.25,4301.74 4975.64,4302.54 4975.23,4303.34 4974.03,4304.13"/>
    </edge>
    <edge id=":16_0" function="internal">
        <lane id=":16_0_0" index="0" speed="6.26" length="9.82" shape="6599.57,6238.17 6599.19,6235.61 6598.05,6233.70 6596.16,6232.43 6593.51,6231.80"/>
    </edge>
    <edge id=":16_1" function="internal">
        <lane id=":16_1_0" index="0" speed="5.41" length="14.74" shape="6599.57,6238.17 6599.57,6223.43"/>
    </edge>
    <edge id=":16_2" function="internal">
        <lane id=":16_2_0" index="0" speed="6.75" length="14.19" shape="6599.57,6238.17 6600.12,6234.32 6601.77,6231.57 6604.52,6229.92 6608.37,6229.37"/>
    </edge>
    <edge id=":16_3" function="internal">
        <lane id=":16_3_0" index="0" speed="3.65" length="4.67" shape="6599.57,6238.17 6600.37,6236.97 6601.17,6236.57 6601.97,6236.97 6602.77,6238.17"/>
    </edge>
    <edge id=":16_4" function="internal">
        <lane id=":16_4_0" index="0" speed="6.51" length="9.03" shape="6608.37,6232.57 6605.92,6232.92 6604.17,6233.97 6603.12,6235.72 6602.77,6238.17"/>
    </edge>
    <edge id=":16_5" function="internal">
        <lane id=":16_5_0" index="0" speed="7.25" length="14.89" shape="6608.37,6232.57 6604.64,6232.52 6600.93,6232.37 6597.22,6232.13 6593.51,6231.80"/>
    </edge>
    <edge id=":16_6" function="internal">
        <lane id=":16_6_0" index="0" speed="6.40" length="4.12" shape="6608.37,6232.57 6604.52,6232.00 6604.33,6231.88"/>
    </edge>
    <edge id=":16_7" function="internal">
        <lane id=":16_7_0" index="0" speed="3.65" length="1.44" shape="6608.37,6232.57 6607.17,6231.77"/>
    </edge>
    <edge id=":16_16" function="internal">
        <lane id=":16_16_0" index="0" speed="6.40" length="10.35" shape="6604.33,6231.88 6601.77,6230.28 6600.12,6227.43 6599.57,6223.43"/>
    </edge>
    <edge id=":16_17" function="internal">
        <lane id=":16_17_0" index="0" speed="3.65" length="3.23" shape="6607.17,6231.77 6606.77,6230.97 6607.17,6230.17 6608.37,6229.37"/>
    </edge>
    <edge id=":16_8" function="internal">
        <lane id=":16_8_0" index="0" speed="6.40" length="9.31" shape="6602.77,6223.43 6603.12,6226.03 6604.17,6227.88 6605.92,6229.00 6608.37,6229.37"/>
    </edge>
    <edge id=":16_9" function="internal">
        <lane id=":16_9_0" index="0" speed="5.41" length="14.74" shape="6602.77,6223.43 6602.77,6238.17"/>
    </edge>
    <edge id=":16_10" function="internal">
        <lane id=":16_10_0" index="0" speed="5.91" length="14.59" shape="6602.77,6223.43 6602.19,6227.44 6600.45,6230.18 6597.56,6231.63 6593.51,6231.80"/>
    </edge>
    <edge id=":16_11" function="internal">
        <lane id=":16_11_0" index="0" speed="3.65" length="4.67" shape="6602.77,6223.43 6601.97,6224.63 6601.17,6225.03 6600.37,6224.63 6599.57,6223.43"/>
    </edge>
    <edge id=":16_12" function="internal">
        <lane id=":16_12_0" index="0" speed="5.91" length="9.04" shape="6593.83,6228.62 6596.34,6228.51 6598.13,6227.61 6599.21,6225.92 6599.57,6223.43"/>
    </edge>
    <edge id=":16_13" function="internal">
        <lane id=":16_13_0" index="0" speed="7.25" length="14.57" shape="6593.83,6228.62 6597.50,6228.95 6601.09,6229.18 6604.69,6229.32 6608.37,6229.37"/>
    </edge>
    <edge id=":16_14" function="internal">
        <lane id=":16_14_0" index="0" speed="6.26" length="4.15" shape="6593.83,6228.62 6597.74,6229.55 6597.85,6229.63"/>
    </edge>
    <edge id=":16_15" function="internal">
        <lane id=":16_15_0" index="0" speed="3.65" length="1.44" shape="6593.83,6228.62 6594.94,6229.53"/>
    </edge>
    <edge id=":16_18" function="internal">
        <lane id=":16_18_0" index="0" speed="6.26" length="10.46" shape="6597.85,6229.63 6600.53,6231.46 6602.21,6234.33 6602.77,6238.17"/>
    </edge>
    <edge id=":16_19" function="internal">
        <lane id=":16_19_0" index="0" speed="3.65" length="3.23" shape="6594.94,6229.53 6595.26,6230.37 6594.78,6231.13 6593.51,6231.80"/>
    </edge>
    <edge id=":17_0" function="internal">
        <lane id=":17_0_0" index="0" speed="4.28" length="9.08" shape="6599.57,5631.65 6599.20,5629.08 6598.10,5627.48 6596.26,5626.84 6593.69,5627.17"/>
    </edge>
    <edge id=":17_1" function="internal">
        <lane id=":17_1_0" index="0" speed="7.95" length="14.63" shape="6599.57,5631.65 6599.60,5617.01"/>
    </edge>
    <edge id=":17_2" function="internal">
        <lane id=":17_2_0" index="0" speed="3.65" length="4.67" shape="6599.57,5631.65 6600.37,5630.45 6601.17,5630.05 6601.97,5630.45 6602.77,5631.65"/>
    </edge>
    <edge id=":17_3" function="internal">
        <lane id=":17_3_0" index="0" speed="7.95" length="14.62" shape="6602.80,5617.03 6602.77,5631.65"/>
    </edge>
    <edge id=":17_4" function="internal">
        <lane id=":17_4_0" index="0" speed="7.16" length="14.75" shape="6602.80,5617.03 6602.22,5620.53 6600.50,5623.38 6597.66,5625.60 6593.69,5627.17"/>
    </edge>
    <edge id=":17_5" function="internal">
        <lane id=":17_5_0" index="0" speed="3.65" length="4.67" shape="6602.80,5617.03 6601.99,5618.22 6601.19,5618.62 6600.39,5618.22 6599.60,5617.01"/>
    </edge>
    <edge id=":17_6" function="internal">
        <lane id=":17_6_0" index="0" speed="7.16" length="10.56" shape="6592.84,5624.08 6595.79,5622.94 6597.90,5621.39 6599.17,5619.41 6599.60,5617.01"/>
    </edge>
    <edge id=":17_7" function="internal">
        <lane id=":17_7_0" index="0" speed="4.28" length="15.33" shape="6592.84,5624.08 6597.18,5623.53 6600.29,5624.61 6602.15,5627.31 6602.77,5631.65"/>
    </edge>
    <edge id=":17_8" function="internal">
        <lane id=":17_8_0" index="0" speed="3.49" length="4.67" shape="6592.84,5624.08 6594.21,5624.53 6594.81,5625.20 6594.63,5626.08 6593.69,5627.17"/>
    </edge>
    <edge id=":18_0" function="internal">
        <lane id=":18_0_0" index="0" speed="6.99" length="10.35" shape="7992.82,6238.12 7992.30,6235.69 7990.92,6233.96 7988.65,6232.92 7985.52,6232.57"/>
    </edge>
    <edge id=":18_1" function="internal">
        <lane id=":18_1_0" index="0" speed="15.75" length="15.09" shape="7992.82,6238.12 7992.51,6234.38 7991.81,6230.66 7990.81,6227.01 7989.54,6223.46"/>
    </edge>
    <edge id=":18_2" function="internal">
        <lane id=":18_2_0" index="0" speed="3.65" length="1.44" shape="7992.82,6238.12 7993.58,6236.90"/>
    </edge>
    <edge id=":18_9" function="internal">
        <lane id=":18_9_0" index="0" speed="3.65" length="3.23" shape="7993.58,6236.90 7994.37,6236.48 7995.18,6236.86 7996.02,6238.04"/>
    </edge>
    <edge id=":18_3" function="internal">
        <lane id=":18_3_0" index="0" speed="15.75" length="16.20" shape="7992.52,6222.29 7993.82,6226.01 7994.90,6230.03 7995.67,6234.12 7996.02,6238.04"/>
    </edge>
    <edge id=":18_4" function="internal">
        <lane id=":18_4_0" index="0" speed="7.50" length="4.93" shape="7992.52,6222.29 7993.60,6226.79 7993.52,6227.08"/>
    </edge>
    <edge id=":18_5" function="internal">
        <lane id=":18_5_0" index="0" speed="3.65" length="1.44" shape="7992.52,6222.29 7992.21,6223.70"/>
    </edge>
    <edge id=":18_10" function="internal">
        <lane id=":18_10_0" index="0" speed="7.50" length="10.94" shape="7993.52,6227.08 7992.79,6230.00 7990.10,6231.93 7985.52,6232.57"/>
    </edge>
    <edge id=":18_11" function="internal">
        <lane id=":18_11_0" index="0" speed="3.65" length="3.23" shape="7992.21,6223.70 7991.61,6224.36 7990.72,6224.28 7989.54,6223.46"/>
    </edge>
    <edge id=":18_6" function="internal">
        <lane id=":18_6_0" index="0" speed="5.85" length="9.12" shape="7985.52,6229.37 7988.15,6229.00 7989.70,6227.89 7990.16,6226.05 7989.54,6223.46"/>
    </edge>
    <edge id=":18_7" function="internal">
        <lane id=":18_7_0" index="0" speed="8.40" length="15.40" shape="7985.52,6229.37 7990.02,6229.91 7993.27,6231.54 7995.27,6234.24 7996.02,6238.04"/>
    </edge>
    <edge id=":18_8" function="internal">
        <lane id=":18_8_0" index="0" speed="3.65" length="4.67" shape="7985.52,6229.37 7986.72,6230.17 7987.12,6230.97 7986.72,6231.77 7985.52,6232.57"/>
    </edge>
    <edge id=":19_0" function="internal">
        <lane id=":19_0_0" index="0" speed="8.72" length="14.39" shape="6608.10,4316.50 6608.02,4330.89"/>
    </edge>
    <edge id=":19_1" function="internal">
        <lane id=":19_1_0" index="0" speed="7.82" length="14.22" shape="6608.10,4316.50 6607.52,4320.36 6605.85,4323.09 6603.08,4324.71 6599.21,4325.22"/>
    </edge>
    <edge id=":19_2" function="internal">
        <lane id=":19_2_0" index="0" speed="3.65" length="4.67" shape="6608.10,4316.50 6607.29,4317.70 6606.49,4318.09 6605.69,4317.68 6604.90,4316.48"/>
    </edge>
    <edge id=":19_3" function="internal">
        <lane id=":19_3_0" index="0" speed="6.49" length="9.03" shape="6599.25,4322.02 6601.71,4321.70 6603.47,4320.67 6604.53,4318.93 6604.90,4316.48"/>
    </edge>
    <edge id=":19_4" function="internal">
        <lane id=":19_4_0" index="0" speed="8.03" length="14.20" shape="6599.25,4322.02 6603.10,4322.61 6605.85,4324.29 6607.49,4327.05 6608.02,4330.89"/>
    </edge>
    <edge id=":19_5" function="internal">
        <lane id=":19_5_0" index="0" speed="3.65" length="4.67" shape="6599.25,4322.02 6600.44,4322.83 6600.83,4323.64 6600.42,4324.43 6599.21,4325.22"/>
    </edge>
    <edge id=":19_6" function="internal">
        <lane id=":19_6_0" index="0" speed="6.54" length="9.07" shape="6604.82,4330.87 6604.48,4328.43 6603.43,4326.67 6601.67,4325.60 6599.21,4325.22"/>
    </edge>
    <edge id=":19_7" function="internal">
        <lane id=":19_7_0" index="0" speed="8.72" length="14.40" shape="6604.82,4330.87 6604.90,4316.48"/>
    </edge>
    <edge id=":19_8" function="internal">
        <lane id=":19_8_0" index="0" speed="3.65" length="4.67" shape="6604.82,4330.87 6605.63,4329.68 6606.43,4329.28 6607.23,4329.68 6608.02,4330.89"/>
    </edge>
    <edge id=":2_0" function="internal">
        <lane id=":2_0_0" index="0" speed="6.10" length="6.94" shape="6613.28,12796.39 6613.05,12798.25 6612.30,12799.67 6611.04,12800.65 6609.25,12801.21"/>
    </edge>
    <edge id=":2_1" function="internal">
        <lane id=":2_1_0" index="0" speed="3.92" length="2.31" shape="6608.74,12798.05 6609.33,12797.86 6609.75,12797.53 6610.00,12797.06 6610.08,12796.44"/>
    </edge>
    <edge id=":20_0" function="internal">